
simpleFoam has been superseded and replaced by the more general
incompressibleFluid solver module executed by the foamRun application:

    foamRun -solver incompressibleFluid

/*---------------------------------------------------------------------------*\
  =========                 |
  \\      /  F ield         | OpenFOAM: The Open Source CFD Toolbox
   \\    /   O peration     | Website:  https://openfoam.org
    \\  /    A nd           | Version:  13
     \\/     M anipulation  |
\*---------------------------------------------------------------------------*/
Build  : 13-58ed5c2046ef
Exec   : foamRun -solver incompressibleFluid
Date   : Mar 11 2026
Time   : 23:16:50
Host   : "MrSthinkpad"
PID    : 35912
I/O    : uncollated
Case   : /home/rodrigo_santiago/OpenFOAM/rodrigo_santiago-11/run/case
nProcs : 1
sigFpe : Enabling floating point exception trapping (FOAM_SIGFPE).
fileModificationChecking : Monitoring run-time modified files using timeStampMaster (fileModificationSkew 10)
allowSystemOperations : Allowing user-supplied system call operations

// * * * * * * * * * * * * * * * * * * * * * * * * * * * * * * * * * * * * * //
Create time

Create mesh for time = 0

Selecting solver incompressibleFluid
--> FOAM Warning : 
    From function const Foam::HashTable<Foam::List<int>, Foam::word>& Foam::polyBoundaryMesh::groupPatchIndices() const
    in file meshes/polyMesh/polyBoundaryMesh/polyBoundaryMesh.C at line 506
    Removing patchGroup 'wall' which clashes with patch 0 of the same name.
Selecting viscosity model Newtonian
Selecting turbulence model type laminar
    Selecting laminar stress model Stokes
No MRF models present


SIMPLE: Convergence criteria found
        p: tolerance 1e-05
        U: tolerance 1e-05


SIMPLE: Operating solver in steady-state mode with 1 outer corrector
SIMPLE: Operating solver in SIMPLE mode



Starting time loop

Time = 1s

DILUPBiCG:  Solving for Ux, Initial residual = 1, Final residual = 8.18908e-06, No Iterations 5
DILUPBiCG:  Solving for Uy, Initial residual = 1, Final residual = 2.73732e-06, No Iterations 5
DILUPBiCG:  Solving for Uz, Initial residual = 1, Final residual = 1.82701e-06, No Iterations 5
DICPCG:  Solving for p, Initial residual = 1, Final residual = 9.60572e-07, No Iterations 89
time step continuity errors : sum local = 1.15065e-06, global = 4.44419e-08, cumulative = 4.44419e-08
ExecutionTime = 1.11914 s  ClockTime = 1 s

Time = 2s

DILUPBiCG:  Solving for Ux, Initial residual = 0.577002, Final residual = 7.83342e-06, No Iterations 4
DILUPBiCG:  Solving for Uy, Initial residual = 0.346715, Final residual = 4.41189e-07, No Iterations 5
DILUPBiCG:  Solving for Uz, Initial residual = 0.38572, Final residual = 4.87489e-06, No Iterations 4
DICPCG:  Solving for p, Initial residual = 0.690089, Final residual = 8.68918e-07, No Iterations 91
time step continuity errors : sum local = 3.3325e-06, global = -3.82201e-08, cumulative = 6.22186e-09
ExecutionTime = 1.57248 s  ClockTime = 2 s

Time = 3s

DILUPBiCG:  Solving for Ux, Initial residual = 0.239223, Final residual = 5.16592e-07, No Iterations 5
DILUPBiCG:  Solving for Uy, Initial residual = 0.219567, Final residual = 7.70551e-06, No Iterations 4
DILUPBiCG:  Solving for Uz, Initial residual = 0.243484, Final residual = 3.86794e-06, No Iterations 4
DICPCG:  Solving for p, Initial residual = 0.707696, Final residual = 9.7184e-07, No Iterations 91
time step continuity errors : sum local = 3.68003e-06, global = 3.88406e-08, cumulative = 4.50625e-08
ExecutionTime = 2.0312 s  ClockTime = 2 s

Time = 4s

DILUPBiCG:  Solving for Ux, Initial residual = 0.152598, Final residual = 1.49268e-06, No Iterations 4
DILUPBiCG:  Solving for Uy, Initial residual = 0.140317, Final residual = 2.09297e-07, No Iterations 5
DILUPBiCG:  Solving for Uz, Initial residual = 0.162924, Final residual = 3.16559e-06, No Iterations 4
DICPCG:  Solving for p, Initial residual = 0.67029, Final residual = 9.52966e-07, No Iterations 110
time step continuity errors : sum local = 3.32211e-06, global = -9.32866e-08, cumulative = -4.82242e-08
ExecutionTime = 2.52359 s  ClockTime = 3 s

Time = 5s

DILUPBiCG:  Solving for Ux, Initial residual = 0.11595, Final residual = 6.74095e-06, No Iterations 4
DILUPBiCG:  Solving for Uy, Initial residual = 0.137173, Final residual = 2.25322e-06, No Iterations 4
DILUPBiCG:  Solving for Uz, Initial residual = 0.129684, Final residual = 3.13856e-06, No Iterations 4
DICPCG:  Solving for p, Initial residual = 0.550902, Final residual = 9.44093e-07, No Iterations 103
time step continuity errors : sum local = 3.39055e-06, global = 5.31893e-08, cumulative = 4.96515e-09
ExecutionTime = 2.99443 s  ClockTime = 3 s

Time = 6s

DILUPBiCG:  Solving for Ux, Initial residual = 0.115029, Final residual = 2.34543e-06, No Iterations 4
DILUPBiCG:  Solving for Uy, Initial residual = 0.159195, Final residual = 2.52832e-06, No Iterations 4
DILUPBiCG:  Solving for Uz, Initial residual = 0.102372, Final residual = 1.1868e-06, No Iterations 4
DICPCG:  Solving for p, Initial residual = 0.473738, Final residual = 9.51795e-07, No Iterations 97
time step continuity errors : sum local = 3.8365e-06, global = 2.81648e-07, cumulative = 2.86613e-07
ExecutionTime = 3.45382 s  ClockTime = 4 s

Time = 7s

DILUPBiCG:  Solving for Ux, Initial residual = 0.118752, Final residual = 3.28677e-06, No Iterations 4
DILUPBiCG:  Solving for Uy, Initial residual = 0.14756, Final residual = 4.10122e-06, No Iterations 4
DILUPBiCG:  Solving for Uz, Initial residual = 0.0733282, Final residual = 2.0112e-06, No Iterations 4
DICPCG:  Solving for p, Initial residual = 0.450932, Final residual = 8.76979e-07, No Iterations 99
time step continuity errors : sum local = 3.7306e-06, global = 1.00427e-08, cumulative = 2.96656e-07
ExecutionTime = 3.93119 s  ClockTime = 4 s

Time = 8s

DILUPBiCG:  Solving for Ux, Initial residual = 0.112144, Final residual = 2.10943e-06, No Iterations 4
DILUPBiCG:  Solving for Uy, Initial residual = 0.119293, Final residual = 4.23976e-06, No Iterations 4
DILUPBiCG:  Solving for Uz, Initial residual = 0.0651787, Final residual = 3.41244e-06, No Iterations 4
DICPCG:  Solving for p, Initial residual = 0.435124, Final residual = 9.31366e-07, No Iterations 95
time step continuity errors : sum local = 3.9967e-06, global = 3.68273e-08, cumulative = 3.33483e-07
ExecutionTime = 4.38171 s  ClockTime = 5 s

Time = 9s

DILUPBiCG:  Solving for Ux, Initial residual = 0.0973716, Final residual = 1.53786e-06, No Iterations 4
DILUPBiCG:  Solving for Uy, Initial residual = 0.0979728, Final residual = 5.47126e-06, No Iterations 4
DILUPBiCG:  Solving for Uz, Initial residual = 0.0724814, Final residual = 1.52441e-06, No Iterations 4
DICPCG:  Solving for p, Initial residual = 0.44807, Final residual = 9.58893e-07, No Iterations 96
time step continuity errors : sum local = 3.91374e-06, global = 5.75877e-08, cumulative = 3.91071e-07
ExecutionTime = 4.85322 s  ClockTime = 5 s

Time = 10s

DILUPBiCG:  Solving for Ux, Initial residual = 0.0822962, Final residual = 8.24212e-07, No Iterations 4
DILUPBiCG:  Solving for Uy, Initial residual = 0.0870994, Final residual = 1.57553e-07, No Iterations 5
DILUPBiCG:  Solving for Uz, Initial residual = 0.0810126, Final residual = 2.05966e-06, No Iterations 4
DICPCG:  Solving for p, Initial residual = 0.471931, Final residual = 8.374e-07, No Iterations 97
time step continuity errors : sum local = 3.09068e-06, global = -6.85325e-08, cumulative = 3.22538e-07
ExecutionTime = 5.3572 s  ClockTime = 6 s

Time = 11s

DILUPBiCG:  Solving for Ux, Initial residual = 0.0717929, Final residual = 7.83875e-07, No Iterations 4
DILUPBiCG:  Solving for Uy, Initial residual = 0.0864233, Final residual = 4.49297e-07, No Iterations 5
DILUPBiCG:  Solving for Uz, Initial residual = 0.0831893, Final residual = 1.89338e-06, No Iterations 4
DICPCG:  Solving for p, Initial residual = 0.500655, Final residual = 9.68257e-07, No Iterations 97
time step continuity errors : sum local = 3.19054e-06, global = 3.89289e-08, cumulative = 3.61467e-07
ExecutionTime = 5.83147 s  ClockTime = 6 s

Time = 12s

DILUPBiCG:  Solving for Ux, Initial residual = 0.0666401, Final residual = 6.26202e-07, No Iterations 4
DILUPBiCG:  Solving for Uy, Initial residual = 0.0876097, Final residual = 7.66011e-06, No Iterations 4
DILUPBiCG:  Solving for Uz, Initial residual = 0.078218, Final residual = 3.00995e-06, No Iterations 4
DICPCG:  Solving for p, Initial residual = 0.494717, Final residual = 8.70255e-07, No Iterations 97
time step continuity errors : sum local = 2.73802e-06, global = 4.28777e-08, cumulative = 4.04345e-07
ExecutionTime = 6.33328 s  ClockTime = 7 s

Time = 13s

DILUPBiCG:  Solving for Ux, Initial residual = 0.061697, Final residual = 7.4546e-07, No Iterations 4
DILUPBiCG:  Solving for Uy, Initial residual = 0.0835125, Final residual = 2.66238e-06, No Iterations 4
DILUPBiCG:  Solving for Uz, Initial residual = 0.0702459, Final residual = 6.81627e-06, No Iterations 4
DICPCG:  Solving for p, Initial residual = 0.476521, Final residual = 9.07411e-07, No Iterations 96
time step continuity errors : sum local = 2.81033e-06, global = 3.43312e-08, cumulative = 4.38676e-07
ExecutionTime = 6.80771 s  ClockTime = 7 s

Time = 14s

DILUPBiCG:  Solving for Ux, Initial residual = 0.05718, Final residual = 4.85631e-06, No Iterations 4
DILUPBiCG:  Solving for Uy, Initial residual = 0.0740447, Final residual = 4.49749e-06, No Iterations 4
DILUPBiCG:  Solving for Uz, Initial residual = 0.0650354, Final residual = 9.09863e-07, No Iterations 4
DICPCG:  Solving for p, Initial residual = 0.46935, Final residual = 9.36434e-07, No Iterations 94
time step continuity errors : sum local = 2.78237e-06, global = -3.20018e-08, cumulative = 4.06674e-07
ExecutionTime = 7.27843 s  ClockTime = 7 s

Time = 15s

DILUPBiCG:  Solving for Ux, Initial residual = 0.0531415, Final residual = 9.40928e-06, No Iterations 3
DILUPBiCG:  Solving for Uy, Initial residual = 0.0650385, Final residual = 8.7749e-06, No Iterations 3
DILUPBiCG:  Solving for Uz, Initial residual = 0.0613599, Final residual = 9.26242e-07, No Iterations 4
DICPCG:  Solving for p, Initial residual = 0.438056, Final residual = 8.67948e-07, No Iterations 95
time step continuity errors : sum local = 2.60287e-06, global = -1.64774e-10, cumulative = 4.06509e-07
ExecutionTime = 7.79112 s  ClockTime = 8 s

Time = 16s

DILUPBiCG:  Solving for Ux, Initial residual = 0.0506313, Final residual = 7.49848e-06, No Iterations 3
DILUPBiCG:  Solving for Uy, Initial residual = 0.0590062, Final residual = 7.90842e-06, No Iterations 3
DILUPBiCG:  Solving for Uz, Initial residual = 0.0584306, Final residual = 9.76569e-07, No Iterations 4
DICPCG:  Solving for p, Initial residual = 0.394458, Final residual = 9.7285e-07, No Iterations 90
time step continuity errors : sum local = 3.06343e-06, global = 3.20856e-08, cumulative = 4.38595e-07
ExecutionTime = 8.23465 s  ClockTime = 8 s

Time = 17s

DILUPBiCG:  Solving for Ux, Initial residual = 0.0491136, Final residual = 7.62202e-06, No Iterations 3
DILUPBiCG:  Solving for Uy, Initial residual = 0.054879, Final residual = 7.99724e-06, No Iterations 3
DILUPBiCG:  Solving for Uz, Initial residual = 0.0558487, Final residual = 9.66508e-07, No Iterations 4
DICPCG:  Solving for p, Initial residual = 0.362205, Final residual = 8.09334e-07, No Iterations 90
time step continuity errors : sum local = 2.6557e-06, global = 4.93747e-08, cumulative = 4.8797e-07
ExecutionTime = 8.69144 s  ClockTime = 9 s

Time = 18s

DILUPBiCG:  Solving for Ux, Initial residual = 0.0481932, Final residual = 1.26484e-06, No Iterations 4
DILUPBiCG:  Solving for Uy, Initial residual = 0.0523439, Final residual = 8.0313e-06, No Iterations 3
DILUPBiCG:  Solving for Uz, Initial residual = 0.0548179, Final residual = 9.25878e-07, No Iterations 4
DICPCG:  Solving for p, Initial residual = 0.343948, Final residual = 8.58029e-07, No Iterations 89
time step continuity errors : sum local = 2.86928e-06, global = 6.94287e-08, cumulative = 5.57399e-07
ExecutionTime = 9.16161 s  ClockTime = 9 s

Time = 19s

DILUPBiCG:  Solving for Ux, Initial residual = 0.0467683, Final residual = 1.23517e-06, No Iterations 4
DILUPBiCG:  Solving for Uy, Initial residual = 0.0501534, Final residual = 7.9798e-06, No Iterations 3
DILUPBiCG:  Solving for Uz, Initial residual = 0.0549414, Final residual = 9.20831e-06, No Iterations 3
DICPCG:  Solving for p, Initial residual = 0.332891, Final residual = 9.4775e-07, No Iterations 74
time step continuity errors : sum local = 3.16696e-06, global = 7.08545e-07, cumulative = 1.26594e-06
ExecutionTime = 9.56305 s  ClockTime = 10 s

Time = 20s

DILUPBiCG:  Solving for Ux, Initial residual = 0.0446325, Final residual = 1.10977e-06, No Iterations 4
DILUPBiCG:  Solving for Uy, Initial residual = 0.0483118, Final residual = 7.49951e-06, No Iterations 3
DILUPBiCG:  Solving for Uz, Initial residual = 0.0554477, Final residual = 8.03161e-06, No Iterations 3
DICPCG:  Solving for p, Initial residual = 0.328741, Final residual = 9.51522e-07, No Iterations 90
time step continuity errors : sum local = 3.12609e-06, global = 3.14896e-09, cumulative = 1.26909e-06
ExecutionTime = 10.0075 s  ClockTime = 10 s

Time = 21s

DILUPBiCG:  Solving for Ux, Initial residual = 0.0426008, Final residual = 8.644e-07, No Iterations 4
DILUPBiCG:  Solving for Uy, Initial residual = 0.0468769, Final residual = 7.47725e-06, No Iterations 3
DILUPBiCG:  Solving for Uz, Initial residual = 0.0558033, Final residual = 7.99353e-06, No Iterations 3
DICPCG:  Solving for p, Initial residual = 0.328742, Final residual = 9.8777e-07, No Iterations 90
time step continuity errors : sum local = 3.17817e-06, global = -5.1649e-08, cumulative = 1.21744e-06
ExecutionTime = 10.4384 s  ClockTime = 11 s

Time = 22s

DILUPBiCG:  Solving for Ux, Initial residual = 0.0410432, Final residual = 7.96217e-07, No Iterations 4
DILUPBiCG:  Solving for Uy, Initial residual = 0.0460649, Final residual = 7.51187e-06, No Iterations 3
DILUPBiCG:  Solving for Uz, Initial residual = 0.0554499, Final residual = 8.09695e-06, No Iterations 3
DICPCG:  Solving for p, Initial residual = 0.331391, Final residual = 9.46566e-07, No Iterations 88
time step continuity errors : sum local = 2.97806e-06, global = 2.19301e-08, cumulative = 1.23937e-06
ExecutionTime = 10.8662 s  ClockTime = 11 s

Time = 23s

DILUPBiCG:  Solving for Ux, Initial residual = 0.0398719, Final residual = 7.39289e-07, No Iterations 4
DILUPBiCG:  Solving for Uy, Initial residual = 0.0452488, Final residual = 7.19424e-06, No Iterations 3
DILUPBiCG:  Solving for Uz, Initial residual = 0.0544995, Final residual = 7.66514e-06, No Iterations 3
DICPCG:  Solving for p, Initial residual = 0.333806, Final residual = 9.99837e-07, No Iterations 85
time step continuity errors : sum local = 3.10518e-06, global = 2.35305e-08, cumulative = 1.2629e-06
ExecutionTime = 11.2863 s  ClockTime = 12 s

Time = 24s

DILUPBiCG:  Solving for Ux, Initial residual = 0.038847, Final residual = 7.07824e-07, No Iterations 4
DILUPBiCG:  Solving for Uy, Initial residual = 0.0443579, Final residual = 6.81574e-06, No Iterations 3
DILUPBiCG:  Solving for Uz, Initial residual = 0.0539271, Final residual = 7.20256e-06, No Iterations 3
DICPCG:  Solving for p, Initial residual = 0.332969, Final residual = 8.50357e-07, No Iterations 87
time step continuity errors : sum local = 2.64102e-06, global = -3.77484e-08, cumulative = 1.22516e-06
ExecutionTime = 11.718 s  ClockTime = 12 s

Time = 25s

DILUPBiCG:  Solving for Ux, Initial residual = 0.038063, Final residual = 6.98682e-07, No Iterations 4
DILUPBiCG:  Solving for Uy, Initial residual = 0.0434306, Final residual = 6.43836e-06, No Iterations 3
DILUPBiCG:  Solving for Uz, Initial residual = 0.053655, Final residual = 7.10785e-06, No Iterations 3
DICPCG:  Solving for p, Initial residual = 0.32799, Final residual = 9.5436e-07, No Iterations 85
time step continuity errors : sum local = 2.98335e-06, global = -4.14253e-08, cumulative = 1.18373e-06
ExecutionTime = 12.1971 s  ClockTime = 12 s

Time = 26s

DILUPBiCG:  Solving for Ux, Initial residual = 0.0376799, Final residual = 7.89759e-07, No Iterations 4
DILUPBiCG:  Solving for Uy, Initial residual = 0.0428141, Final residual = 5.82714e-06, No Iterations 3
DILUPBiCG:  Solving for Uz, Initial residual = 0.0533648, Final residual = 7.11865e-06, No Iterations 3
DICPCG:  Solving for p, Initial residual = 0.322396, Final residual = 8.12201e-07, No Iterations 84
time step continuity errors : sum local = 2.5655e-06, global = -3.62003e-08, cumulative = 1.14753e-06
ExecutionTime = 12.6341 s  ClockTime = 13 s

Time = 27s

DILUPBiCG:  Solving for Ux, Initial residual = 0.0373408, Final residual = 6.42097e-06, No Iterations 3
DILUPBiCG:  Solving for Uy, Initial residual = 0.0426643, Final residual = 6.07275e-06, No Iterations 3
DILUPBiCG:  Solving for Uz, Initial residual = 0.0532689, Final residual = 6.91595e-06, No Iterations 3
DICPCG:  Solving for p, Initial residual = 0.316087, Final residual = 9.80576e-07, No Iterations 80
time step continuity errors : sum local = 3.13601e-06, global = 1.96184e-08, cumulative = 1.16715e-06
ExecutionTime = 13.0536 s  ClockTime = 13 s

Time = 28s

DILUPBiCG:  Solving for Ux, Initial residual = 0.0370525, Final residual = 5.15371e-06, No Iterations 3
DILUPBiCG:  Solving for Uy, Initial residual = 0.0426249, Final residual = 5.85967e-06, No Iterations 3
DILUPBiCG:  Solving for Uz, Initial residual = 0.0533152, Final residual = 6.87908e-06, No Iterations 3
DICPCG:  Solving for p, Initial residual = 0.311831, Final residual = 9.48844e-07, No Iterations 83
time step continuity errors : sum local = 3.06107e-06, global = 5.53801e-08, cumulative = 1.22253e-06
ExecutionTime = 13.4873 s  ClockTime = 14 s

Time = 29s

DILUPBiCG:  Solving for Ux, Initial residual = 0.0367875, Final residual = 4.8398e-06, No Iterations 3
DILUPBiCG:  Solving for Uy, Initial residual = 0.0427361, Final residual = 5.98483e-06, No Iterations 3
DILUPBiCG:  Solving for Uz, Initial residual = 0.0531896, Final residual = 6.87958e-06, No Iterations 3
DICPCG:  Solving for p, Initial residual = 0.310888, Final residual = 8.65707e-07, No Iterations 83
time step continuity errors : sum local = 2.81245e-06, global = 1.07114e-07, cumulative = 1.32964e-06
ExecutionTime = 13.8886 s  ClockTime = 14 s

Time = 30s

DILUPBiCG:  Solving for Ux, Initial residual = 0.036491, Final residual = 4.66569e-06, No Iterations 3
DILUPBiCG:  Solving for Uy, Initial residual = 0.0427619, Final residual = 6.06581e-06, No Iterations 3
DILUPBiCG:  Solving for Uz, Initial residual = 0.0532013, Final residual = 6.92687e-06, No Iterations 3
DICPCG:  Solving for p, Initial residual = 0.311305, Final residual = 8.31586e-07, No Iterations 82
time step continuity errors : sum local = 2.71526e-06, global = -3.78507e-08, cumulative = 1.29179e-06
ExecutionTime = 14.3214 s  ClockTime = 15 s

Time = 31s

DILUPBiCG:  Solving for Ux, Initial residual = 0.0360408, Final residual = 4.68886e-06, No Iterations 3
DILUPBiCG:  Solving for Uy, Initial residual = 0.0427512, Final residual = 5.92497e-06, No Iterations 3
DILUPBiCG:  Solving for Uz, Initial residual = 0.0530832, Final residual = 7.22352e-06, No Iterations 3
DICPCG:  Solving for p, Initial residual = 0.31278, Final residual = 8.14774e-07, No Iterations 82
time step continuity errors : sum local = 2.66508e-06, global = -7.07211e-09, cumulative = 1.28472e-06
ExecutionTime = 14.7589 s  ClockTime = 15 s

Time = 32s

DILUPBiCG:  Solving for Ux, Initial residual = 0.0354985, Final residual = 4.81034e-06, No Iterations 3
DILUPBiCG:  Solving for Uy, Initial residual = 0.0427696, Final residual = 5.83416e-06, No Iterations 3
DILUPBiCG:  Solving for Uz, Initial residual = 0.052709, Final residual = 7.83959e-06, No Iterations 3
DICPCG:  Solving for p, Initial residual = 0.314912, Final residual = 8.80435e-07, No Iterations 81
time step continuity errors : sum local = 2.89033e-06, global = -1.62551e-08, cumulative = 1.26846e-06
ExecutionTime = 15.1818 s  ClockTime = 15 s

Time = 33s

DILUPBiCG:  Solving for Ux, Initial residual = 0.0351569, Final residual = 4.77968e-06, No Iterations 3
DILUPBiCG:  Solving for Uy, Initial residual = 0.0429282, Final residual = 5.92908e-06, No Iterations 3
DILUPBiCG:  Solving for Uz, Initial residual = 0.0525226, Final residual = 7.22442e-06, No Iterations 3
DICPCG:  Solving for p, Initial residual = 0.31559, Final residual = 9.9119e-07, No Iterations 77
time step continuity errors : sum local = 3.26876e-06, global = 3.48546e-09, cumulative = 1.27195e-06
ExecutionTime = 15.5921 s  ClockTime = 16 s

Time = 34s

DILUPBiCG:  Solving for Ux, Initial residual = 0.0350999, Final residual = 4.71188e-06, No Iterations 3
DILUPBiCG:  Solving for Uy, Initial residual = 0.0430574, Final residual = 6.04515e-06, No Iterations 3
DILUPBiCG:  Solving for Uz, Initial residual = 0.0523552, Final residual = 6.83558e-06, No Iterations 3
DICPCG:  Solving for p, Initial residual = 0.313123, Final residual = 9.85688e-07, No Iterations 77
time step continuity errors : sum local = 3.26442e-06, global = 1.77435e-07, cumulative = 1.44938e-06
ExecutionTime = 16.0262 s  ClockTime = 16 s

Time = 35s

DILUPBiCG:  Solving for Ux, Initial residual = 0.034982, Final residual = 4.6682e-06, No Iterations 3
DILUPBiCG:  Solving for Uy, Initial residual = 0.0431149, Final residual = 6.17696e-06, No Iterations 3
DILUPBiCG:  Solving for Uz, Initial residual = 0.0519716, Final residual = 6.78528e-06, No Iterations 3
DICPCG:  Solving for p, Initial residual = 0.309619, Final residual = 8.16137e-07, No Iterations 79
time step continuity errors : sum local = 2.72527e-06, global = 9.08446e-08, cumulative = 1.54023e-06
ExecutionTime = 16.5048 s  ClockTime = 17 s

Time = 36s

DILUPBiCG:  Solving for Ux, Initial residual = 0.0348196, Final residual = 4.62391e-06, No Iterations 3
DILUPBiCG:  Solving for Uy, Initial residual = 0.0429214, Final residual = 6.25338e-06, No Iterations 3
DILUPBiCG:  Solving for Uz, Initial residual = 0.0517077, Final residual = 6.84424e-06, No Iterations 3
DICPCG:  Solving for p, Initial residual = 0.30698, Final residual = 9.8398e-07, No Iterations 78
time step continuity errors : sum local = 3.32054e-06, global = 8.83392e-08, cumulative = 1.62857e-06
ExecutionTime = 16.9092 s  ClockTime = 17 s

Time = 37s

DILUPBiCG:  Solving for Ux, Initial residual = 0.0347224, Final residual = 4.60241e-06, No Iterations 3
DILUPBiCG:  Solving for Uy, Initial residual = 0.0429023, Final residual = 6.27865e-06, No Iterations 3
DILUPBiCG:  Solving for Uz, Initial residual = 0.0514066, Final residual = 7.02242e-06, No Iterations 3
DICPCG:  Solving for p, Initial residual = 0.304464, Final residual = 8.00892e-07, No Iterations 79
time step continuity errors : sum local = 2.74388e-06, global = 4.89581e-08, cumulative = 1.67753e-06
ExecutionTime = 17.3797 s  ClockTime = 18 s

Time = 38s

DILUPBiCG:  Solving for Ux, Initial residual = 0.0346375, Final residual = 4.51906e-06, No Iterations 3
DILUPBiCG:  Solving for Uy, Initial residual = 0.042824, Final residual = 6.26564e-06, No Iterations 3
DILUPBiCG:  Solving for Uz, Initial residual = 0.0510732, Final residual = 6.98499e-06, No Iterations 3
DICPCG:  Solving for p, Initial residual = 0.30141, Final residual = 9.59809e-07, No Iterations 78
time step continuity errors : sum local = 3.33696e-06, global = 5.09424e-08, cumulative = 1.72847e-06
ExecutionTime = 17.8578 s  ClockTime = 18 s

Time = 39s

DILUPBiCG:  Solving for Ux, Initial residual = 0.034518, Final residual = 4.48614e-06, No Iterations 3
DILUPBiCG:  Solving for Uy, Initial residual = 0.0427602, Final residual = 6.26501e-06, No Iterations 3
DILUPBiCG:  Solving for Uz, Initial residual = 0.0508329, Final residual = 6.86275e-06, No Iterations 3
DICPCG:  Solving for p, Initial residual = 0.296913, Final residual = 8.4332e-07, No Iterations 78
time step continuity errors : sum local = 2.97678e-06, global = 6.47462e-08, cumulative = 1.79322e-06
ExecutionTime = 18.2605 s  ClockTime = 19 s

Time = 40s

DILUPBiCG:  Solving for Ux, Initial residual = 0.0345715, Final residual = 4.43326e-06, No Iterations 3
DILUPBiCG:  Solving for Uy, Initial residual = 0.0427036, Final residual = 6.1493e-06, No Iterations 3
DILUPBiCG:  Solving for Uz, Initial residual = 0.0507411, Final residual = 6.77666e-06, No Iterations 3
DICPCG:  Solving for p, Initial residual = 0.293779, Final residual = 9.74377e-07, No Iterations 76
time step continuity errors : sum local = 3.48963e-06, global = 1.59394e-07, cumulative = 1.95261e-06
ExecutionTime = 18.6803 s  ClockTime = 19 s

Time = 41s

DILUPBiCG:  Solving for Ux, Initial residual = 0.0346847, Final residual = 4.35868e-06, No Iterations 3
DILUPBiCG:  Solving for Uy, Initial residual = 0.042691, Final residual = 6.08564e-06, No Iterations 3
DILUPBiCG:  Solving for Uz, Initial residual = 0.0508736, Final residual = 6.67457e-06, No Iterations 3
DICPCG:  Solving for p, Initial residual = 0.291771, Final residual = 9.74205e-07, No Iterations 72
time step continuity errors : sum local = 3.54459e-06, global = 1.67951e-07, cumulative = 2.12056e-06
ExecutionTime = 19.0893 s  ClockTime = 19 s

Time = 42s

DILUPBiCG:  Solving for Ux, Initial residual = 0.0347818, Final residual = 4.33198e-06, No Iterations 3
DILUPBiCG:  Solving for Uy, Initial residual = 0.0425416, Final residual = 6.00211e-06, No Iterations 3
DILUPBiCG:  Solving for Uz, Initial residual = 0.0507168, Final residual = 6.51753e-06, No Iterations 3
DICPCG:  Solving for p, Initial residual = 0.287947, Final residual = 9.16182e-07, No Iterations 71
time step continuity errors : sum local = 3.39747e-06, global = 9.89555e-08, cumulative = 2.21952e-06
ExecutionTime = 19.4683 s  ClockTime = 20 s

Time = 43s

DILUPBiCG:  Solving for Ux, Initial residual = 0.0350367, Final residual = 4.33862e-06, No Iterations 3
DILUPBiCG:  Solving for Uy, Initial residual = 0.0423251, Final residual = 5.83653e-06, No Iterations 3
DILUPBiCG:  Solving for Uz, Initial residual = 0.0506825, Final residual = 6.41838e-06, No Iterations 3
DICPCG:  Solving for p, Initial residual = 0.284171, Final residual = 9.33064e-07, No Iterations 72
time step continuity errors : sum local = 3.51555e-06, global = -1.2336e-08, cumulative = 2.20718e-06
ExecutionTime = 19.8437 s  ClockTime = 20 s

Time = 44s

DILUPBiCG:  Solving for Ux, Initial residual = 0.0353074, Final residual = 4.38795e-06, No Iterations 3
DILUPBiCG:  Solving for Uy, Initial residual = 0.0420647, Final residual = 5.72127e-06, No Iterations 3
DILUPBiCG:  Solving for Uz, Initial residual = 0.0508531, Final residual = 6.47437e-06, No Iterations 3
DICPCG:  Solving for p, Initial residual = 0.282371, Final residual = 9.04151e-07, No Iterations 76
time step continuity errors : sum local = 3.46004e-06, global = -2.90642e-09, cumulative = 2.20427e-06
ExecutionTime = 20.229 s  ClockTime = 20 s

Time = 45s

DILUPBiCG:  Solving for Ux, Initial residual = 0.0354872, Final residual = 4.50076e-06, No Iterations 3
DILUPBiCG:  Solving for Uy, Initial residual = 0.0416324, Final residual = 5.5551e-06, No Iterations 3
DILUPBiCG:  Solving for Uz, Initial residual = 0.0510303, Final residual = 6.61854e-06, No Iterations 3
DICPCG:  Solving for p, Initial residual = 0.280088, Final residual = 9.53875e-07, No Iterations 78
time step continuity errors : sum local = 3.70444e-06, global = 5.38888e-08, cumulative = 2.25816e-06
ExecutionTime = 20.6297 s  ClockTime = 21 s

Time = 46s

DILUPBiCG:  Solving for Ux, Initial residual = 0.0355981, Final residual = 4.52196e-06, No Iterations 3
DILUPBiCG:  Solving for Uy, Initial residual = 0.0412928, Final residual = 5.43326e-06, No Iterations 3
DILUPBiCG:  Solving for Uz, Initial residual = 0.0512002, Final residual = 6.73013e-06, No Iterations 3
DICPCG:  Solving for p, Initial residual = 0.278357, Final residual = 9.47107e-07, No Iterations 79
time step continuity errors : sum local = 3.73894e-06, global = 6.70885e-08, cumulative = 2.32525e-06
ExecutionTime = 21.0193 s  ClockTime = 21 s

Time = 47s

DILUPBiCG:  Solving for Ux, Initial residual = 0.0356388, Final residual = 4.43909e-06, No Iterations 3
DILUPBiCG:  Solving for Uy, Initial residual = 0.0410171, Final residual = 5.39157e-06, No Iterations 3
DILUPBiCG:  Solving for Uz, Initial residual = 0.0514445, Final residual = 6.82834e-06, No Iterations 3
DICPCG:  Solving for p, Initial residual = 0.277808, Final residual = 9.46304e-07, No Iterations 78
time step continuity errors : sum local = 3.80326e-06, global = 6.86888e-08, cumulative = 2.39394e-06
ExecutionTime = 21.4307 s  ClockTime = 22 s

Time = 48s

DILUPBiCG:  Solving for Ux, Initial residual = 0.035841, Final residual = 4.77325e-06, No Iterations 3
DILUPBiCG:  Solving for Uy, Initial residual = 0.0407143, Final residual = 5.3599e-06, No Iterations 3
DILUPBiCG:  Solving for Uz, Initial residual = 0.0517567, Final residual = 6.87739e-06, No Iterations 3
DICPCG:  Solving for p, Initial residual = 0.276552, Final residual = 8.44317e-07, No Iterations 74
time step continuity errors : sum local = 3.45836e-06, global = -9.97379e-08, cumulative = 2.2942e-06
ExecutionTime = 21.8085 s  ClockTime = 22 s

Time = 49s

DILUPBiCG:  Solving for Ux, Initial residual = 0.0361031, Final residual = 3.40341e-07, No Iterations 4
DILUPBiCG:  Solving for Uy, Initial residual = 0.0405577, Final residual = 5.44685e-06, No Iterations 3
DILUPBiCG:  Solving for Uz, Initial residual = 0.0521531, Final residual = 6.90624e-06, No Iterations 3
DICPCG:  Solving for p, Initial residual = 0.273843, Final residual = 9.39366e-07, No Iterations 75
time step continuity errors : sum local = 3.92701e-06, global = -2.24177e-07, cumulative = 2.07002e-06
ExecutionTime = 22.1997 s  ClockTime = 22 s

Time = 50s

DILUPBiCG:  Solving for Ux, Initial residual = 0.0363383, Final residual = 3.29627e-07, No Iterations 4
DILUPBiCG:  Solving for Uy, Initial residual = 0.0403077, Final residual = 5.70284e-06, No Iterations 3
DILUPBiCG:  Solving for Uz, Initial residual = 0.0527075, Final residual = 6.25961e-07, No Iterations 4
DICPCG:  Solving for p, Initial residual = 0.27096, Final residual = 8.99037e-07, No Iterations 74
time step continuity errors : sum local = 3.82748e-06, global = -2.02351e-07, cumulative = 1.86767e-06
ExecutionTime = 22.5994 s  ClockTime = 23 s

Time = 51s

DILUPBiCG:  Solving for Ux, Initial residual = 0.036488, Final residual = 5.47266e-07, No Iterations 4
DILUPBiCG:  Solving for Uy, Initial residual = 0.0400753, Final residual = 6.84432e-07, No Iterations 4
DILUPBiCG:  Solving for Uz, Initial residual = 0.0532501, Final residual = 6.88425e-07, No Iterations 4
DICPCG:  Solving for p, Initial residual = 0.268936, Final residual = 9.13856e-07, No Iterations 75
time step continuity errors : sum local = 3.96471e-06, global = -2.21866e-08, cumulative = 1.84549e-06
ExecutionTime = 23.0053 s  ClockTime = 23 s

Time = 52s

DILUPBiCG:  Solving for Ux, Initial residual = 0.0364729, Final residual = 4.39953e-06, No Iterations 3
DILUPBiCG:  Solving for Uy, Initial residual = 0.0395745, Final residual = 5.446e-06, No Iterations 3
DILUPBiCG:  Solving for Uz, Initial residual = 0.0535223, Final residual = 3.54208e-06, No Iterations 4
DICPCG:  Solving for p, Initial residual = 0.267405, Final residual = 9.64129e-07, No Iterations 77
time step continuity errors : sum local = 4.25655e-06, global = 1.18733e-07, cumulative = 1.96422e-06
ExecutionTime = 23.4041 s  ClockTime = 24 s

Time = 53s

DILUPBiCG:  Solving for Ux, Initial residual = 0.0366099, Final residual = 4.87582e-06, No Iterations 3
DILUPBiCG:  Solving for Uy, Initial residual = 0.0391389, Final residual = 5.30541e-06, No Iterations 3
DILUPBiCG:  Solving for Uz, Initial residual = 0.0539919, Final residual = 7.46337e-06, No Iterations 3
DICPCG:  Solving for p, Initial residual = 0.267125, Final residual = 9.1007e-07, No Iterations 77
time step continuity errors : sum local = 4.08775e-06, global = 1.21596e-07, cumulative = 2.08582e-06
ExecutionTime = 23.7935 s  ClockTime = 24 s

Time = 54s

DILUPBiCG:  Solving for Ux, Initial residual = 0.0368973, Final residual = 4.94428e-06, No Iterations 3
DILUPBiCG:  Solving for Uy, Initial residual = 0.0387517, Final residual = 5.14225e-06, No Iterations 3
DILUPBiCG:  Solving for Uz, Initial residual = 0.0547678, Final residual = 7.33388e-06, No Iterations 3
DICPCG:  Solving for p, Initial residual = 0.265857, Final residual = 8.65018e-07, No Iterations 77
time step continuity errors : sum local = 3.95364e-06, global = 5.11351e-08, cumulative = 2.13695e-06
ExecutionTime = 24.1894 s  ClockTime = 24 s

Time = 55s

DILUPBiCG:  Solving for Ux, Initial residual = 0.0372586, Final residual = 4.81497e-06, No Iterations 3
DILUPBiCG:  Solving for Uy, Initial residual = 0.0384297, Final residual = 5.08434e-06, No Iterations 3
DILUPBiCG:  Solving for Uz, Initial residual = 0.0550665, Final residual = 7.63397e-06, No Iterations 3
DICPCG:  Solving for p, Initial residual = 0.264899, Final residual = 9.21668e-07, No Iterations 76
time step continuity errors : sum local = 4.2915e-06, global = -2.44819e-09, cumulative = 2.1345e-06
ExecutionTime = 24.5725 s  ClockTime = 25 s

Time = 56s

DILUPBiCG:  Solving for Ux, Initial residual = 0.0376503, Final residual = 4.86449e-06, No Iterations 3
DILUPBiCG:  Solving for Uy, Initial residual = 0.0381318, Final residual = 5.06834e-06, No Iterations 3
DILUPBiCG:  Solving for Uz, Initial residual = 0.0555823, Final residual = 7.25777e-07, No Iterations 4
DICPCG:  Solving for p, Initial residual = 0.263609, Final residual = 9.43831e-07, No Iterations 77
time step continuity errors : sum local = 4.49153e-06, global = 2.01297e-09, cumulative = 2.13652e-06
ExecutionTime = 24.9662 s  ClockTime = 25 s

Time = 57s

DILUPBiCG:  Solving for Ux, Initial residual = 0.0381336, Final residual = 4.98579e-06, No Iterations 3
DILUPBiCG:  Solving for Uy, Initial residual = 0.0378989, Final residual = 4.98891e-06, No Iterations 3
DILUPBiCG:  Solving for Uz, Initial residual = 0.055974, Final residual = 4.53537e-07, No Iterations 4
DICPCG:  Solving for p, Initial residual = 0.260858, Final residual = 9.12382e-07, No Iterations 77
time step continuity errors : sum local = 4.44744e-06, global = 4.17913e-08, cumulative = 2.17831e-06
ExecutionTime = 25.3608 s  ClockTime = 26 s

Time = 58s

DILUPBiCG:  Solving for Ux, Initial residual = 0.0385126, Final residual = 5.33554e-06, No Iterations 3
DILUPBiCG:  Solving for Uy, Initial residual = 0.0377592, Final residual = 4.89057e-06, No Iterations 3
DILUPBiCG:  Solving for Uz, Initial residual = 0.0565588, Final residual = 5.012e-07, No Iterations 4
DICPCG:  Solving for p, Initial residual = 0.258249, Final residual = 9.1072e-07, No Iterations 77
time step continuity errors : sum local = 4.54251e-06, global = 4.40491e-08, cumulative = 2.22236e-06
ExecutionTime = 25.7568 s  ClockTime = 26 s

Time = 59s

DILUPBiCG:  Solving for Ux, Initial residual = 0.0391746, Final residual = 6.01123e-06, No Iterations 3
DILUPBiCG:  Solving for Uy, Initial residual = 0.0376525, Final residual = 5.38779e-06, No Iterations 3
DILUPBiCG:  Solving for Uz, Initial residual = 0.0570321, Final residual = 8.99501e-07, No Iterations 4
DICPCG:  Solving for p, Initial residual = 0.255962, Final residual = 9.40531e-07, No Iterations 75
time step continuity errors : sum local = 4.79996e-06, global = -1.64081e-09, cumulative = 2.22072e-06
ExecutionTime = 26.1489 s  ClockTime = 26 s

Time = 60s

DILUPBiCG:  Solving for Ux, Initial residual = 0.0398187, Final residual = 7.08931e-06, No Iterations 3
DILUPBiCG:  Solving for Uy, Initial residual = 0.037674, Final residual = 5.45461e-06, No Iterations 3
DILUPBiCG:  Solving for Uz, Initial residual = 0.0574672, Final residual = 8.60025e-06, No Iterations 3
DICPCG:  Solving for p, Initial residual = 0.252019, Final residual = 9.52225e-07, No Iterations 77
time step continuity errors : sum local = 4.97683e-06, global = -5.16233e-08, cumulative = 2.16909e-06
ExecutionTime = 26.5421 s  ClockTime = 27 s

Time = 61s

DILUPBiCG:  Solving for Ux, Initial residual = 0.0400819, Final residual = 7.62057e-06, No Iterations 3
DILUPBiCG:  Solving for Uy, Initial residual = 0.0378495, Final residual = 5.71272e-06, No Iterations 3
DILUPBiCG:  Solving for Uz, Initial residual = 0.0578712, Final residual = 1.0501e-06, No Iterations 4
DICPCG:  Solving for p, Initial residual = 0.25028, Final residual = 8.61172e-07, No Iterations 77
time step continuity errors : sum local = 4.61822e-06, global = 2.86062e-08, cumulative = 2.1977e-06
ExecutionTime = 26.9587 s  ClockTime = 27 s

Time = 62s

DILUPBiCG:  Solving for Ux, Initial residual = 0.0403265, Final residual = 7.86392e-06, No Iterations 3
DILUPBiCG:  Solving for Uy, Initial residual = 0.0378787, Final residual = 6.43185e-06, No Iterations 3
DILUPBiCG:  Solving for Uz, Initial residual = 0.0583394, Final residual = 8.55507e-08, No Iterations 5
DICPCG:  Solving for p, Initial residual = 0.246944, Final residual = 9.61105e-07, No Iterations 78
time step continuity errors : sum local = 5.27718e-06, global = 1.36636e-07, cumulative = 2.33433e-06
ExecutionTime = 27.414 s  ClockTime = 28 s

Time = 63s

DILUPBiCG:  Solving for Ux, Initial residual = 0.0406083, Final residual = 7.69674e-06, No Iterations 3
DILUPBiCG:  Solving for Uy, Initial residual = 0.0379185, Final residual = 7.24484e-06, No Iterations 3
DILUPBiCG:  Solving for Uz, Initial residual = 0.0583898, Final residual = 9.37138e-06, No Iterations 3
DICPCG:  Solving for p, Initial residual = 0.244419, Final residual = 9.31354e-07, No Iterations 80
time step continuity errors : sum local = 5.23432e-06, global = 1.782e-07, cumulative = 2.51253e-06
ExecutionTime = 27.8238 s  ClockTime = 28 s

Time = 64s

DILUPBiCG:  Solving for Ux, Initial residual = 0.040956, Final residual = 8.21132e-06, No Iterations 3
DILUPBiCG:  Solving for Uy, Initial residual = 0.0379823, Final residual = 9.67786e-06, No Iterations 3
DILUPBiCG:  Solving for Uz, Initial residual = 0.0585966, Final residual = 7.30556e-07, No Iterations 4
DICPCG:  Solving for p, Initial residual = 0.242665, Final residual = 9.95671e-07, No Iterations 78
time step continuity errors : sum local = 5.71095e-06, global = 1.13337e-07, cumulative = 2.62587e-06
ExecutionTime = 28.2544 s  ClockTime = 29 s

Time = 65s

DILUPBiCG:  Solving for Ux, Initial residual = 0.0411597, Final residual = 6.77853e-06, No Iterations 3
DILUPBiCG:  Solving for Uy, Initial residual = 0.037984, Final residual = 3.60678e-07, No Iterations 4
DILUPBiCG:  Solving for Uz, Initial residual = 0.0586675, Final residual = 9.70432e-07, No Iterations 4
DICPCG:  Solving for p, Initial residual = 0.241086, Final residual = 9.6115e-07, No Iterations 78
time step continuity errors : sum local = 5.63002e-06, global = -7.89355e-09, cumulative = 2.61798e-06
ExecutionTime = 28.6665 s  ClockTime = 29 s

Time = 66s

DILUPBiCG:  Solving for Ux, Initial residual = 0.0413413, Final residual = 7.22161e-06, No Iterations 3
DILUPBiCG:  Solving for Uy, Initial residual = 0.0378723, Final residual = 6.61883e-07, No Iterations 4
DILUPBiCG:  Solving for Uz, Initial residual = 0.0588762, Final residual = 1.18616e-06, No Iterations 4
DICPCG:  Solving for p, Initial residual = 0.239651, Final residual = 8.90174e-07, No Iterations 81
time step continuity errors : sum local = 5.33086e-06, global = 6.87138e-08, cumulative = 2.68669e-06
ExecutionTime = 29.1138 s  ClockTime = 29 s

Time = 67s

DILUPBiCG:  Solving for Ux, Initial residual = 0.0417304, Final residual = 6.35691e-06, No Iterations 3
DILUPBiCG:  Solving for Uy, Initial residual = 0.0378612, Final residual = 3.82557e-07, No Iterations 4
DILUPBiCG:  Solving for Uz, Initial residual = 0.0591362, Final residual = 1.4625e-06, No Iterations 4
DICPCG:  Solving for p, Initial residual = 0.237922, Final residual = 8.99779e-07, No Iterations 81
time step continuity errors : sum local = 5.50019e-06, global = 1.26659e-07, cumulative = 2.81335e-06
ExecutionTime = 29.5623 s  ClockTime = 30 s

Time = 68s

DILUPBiCG:  Solving for Ux, Initial residual = 0.0423076, Final residual = 6.40923e-06, No Iterations 3
DILUPBiCG:  Solving for Uy, Initial residual = 0.037999, Final residual = 3.77899e-07, No Iterations 4
DILUPBiCG:  Solving for Uz, Initial residual = 0.0592264, Final residual = 5.67291e-07, No Iterations 4
DICPCG:  Solving for p, Initial residual = 0.236421, Final residual = 9.94604e-07, No Iterations 81
time step continuity errors : sum local = 6.22507e-06, global = 1.41781e-07, cumulative = 2.95513e-06
ExecutionTime = 30.0167 s  ClockTime = 30 s

Time = 69s

DILUPBiCG:  Solving for Ux, Initial residual = 0.042682, Final residual = 7.24377e-06, No Iterations 3
DILUPBiCG:  Solving for Uy, Initial residual = 0.0382038, Final residual = 8.90502e-06, No Iterations 3
DILUPBiCG:  Solving for Uz, Initial residual = 0.0590164, Final residual = 5.63448e-07, No Iterations 4
DICPCG:  Solving for p, Initial residual = 0.236073, Final residual = 9.05902e-07, No Iterations 82
time step continuity errors : sum local = 5.81623e-06, global = 1.25133e-07, cumulative = 3.08026e-06
ExecutionTime = 30.4374 s  ClockTime = 31 s

Time = 70s

DILUPBiCG:  Solving for Ux, Initial residual = 0.0430554, Final residual = 9.46827e-06, No Iterations 3
DILUPBiCG:  Solving for Uy, Initial residual = 0.0384114, Final residual = 9.19552e-06, No Iterations 3
DILUPBiCG:  Solving for Uz, Initial residual = 0.0589017, Final residual = 1.44909e-06, No Iterations 4
DICPCG:  Solving for p, Initial residual = 0.235035, Final residual = 9.70168e-07, No Iterations 81
time step continuity errors : sum local = 6.40377e-06, global = 9.76917e-08, cumulative = 3.17796e-06
ExecutionTime = 30.8578 s  ClockTime = 31 s

Time = 71s

DILUPBiCG:  Solving for Ux, Initial residual = 0.0437051, Final residual = 1.94516e-06, No Iterations 4
DILUPBiCG:  Solving for Uy, Initial residual = 0.0387627, Final residual = 9.45205e-06, No Iterations 3
DILUPBiCG:  Solving for Uz, Initial residual = 0.0585098, Final residual = 9.18091e-06, No Iterations 3
DICPCG:  Solving for p, Initial residual = 0.229871, Final residual = 8.87772e-07, No Iterations 82
time step continuity errors : sum local = 6.00643e-06, global = 1.81308e-08, cumulative = 3.19609e-06
ExecutionTime = 31.2809 s  ClockTime = 32 s

Time = 72s

DILUPBiCG:  Solving for Ux, Initial residual = 0.0446165, Final residual = 2.36196e-06, No Iterations 4
DILUPBiCG:  Solving for Uy, Initial residual = 0.039039, Final residual = 8.67118e-06, No Iterations 3
DILUPBiCG:  Solving for Uz, Initial residual = 0.0583883, Final residual = 8.96392e-06, No Iterations 3
DICPCG:  Solving for p, Initial residual = 0.226236, Final residual = 9.6693e-07, No Iterations 83
time step continuity errors : sum local = 6.737e-06, global = 1.76292e-08, cumulative = 3.21372e-06
ExecutionTime = 31.6999 s  ClockTime = 32 s

Time = 73s

DILUPBiCG:  Solving for Ux, Initial residual = 0.0455799, Final residual = 1.55818e-06, No Iterations 4
DILUPBiCG:  Solving for Uy, Initial residual = 0.0392984, Final residual = 8.59549e-06, No Iterations 3
DILUPBiCG:  Solving for Uz, Initial residual = 0.0584336, Final residual = 2.35016e-06, No Iterations 4
DICPCG:  Solving for p, Initial residual = 0.222878, Final residual = 9.55132e-07, No Iterations 83
time step continuity errors : sum local = 6.86299e-06, global = 2.02666e-08, cumulative = 3.23398e-06
ExecutionTime = 32.1318 s  ClockTime = 32 s

Time = 74s

DILUPBiCG:  Solving for Ux, Initial residual = 0.0463403, Final residual = 6.67974e-07, No Iterations 4
DILUPBiCG:  Solving for Uy, Initial residual = 0.039605, Final residual = 4.50385e-07, No Iterations 4
DILUPBiCG:  Solving for Uz, Initial residual = 0.0594718, Final residual = 6.47062e-07, No Iterations 4
DICPCG:  Solving for p, Initial residual = 0.219251, Final residual = 9.40574e-07, No Iterations 84
time step continuity errors : sum local = 6.97111e-06, global = 8.08166e-08, cumulative = 3.3148e-06
ExecutionTime = 32.5763 s  ClockTime = 33 s

Time = 75s

DILUPBiCG:  Solving for Ux, Initial residual = 0.0472459, Final residual = 4.79161e-07, No Iterations 4
DILUPBiCG:  Solving for Uy, Initial residual = 0.0401379, Final residual = 4.55506e-07, No Iterations 4
DILUPBiCG:  Solving for Uz, Initial residual = 0.0608368, Final residual = 6.99703e-07, No Iterations 4
DICPCG:  Solving for p, Initial residual = 0.218028, Final residual = 9.43893e-07, No Iterations 85
time step continuity errors : sum local = 7.20631e-06, global = 1.4027e-07, cumulative = 3.45507e-06
ExecutionTime = 33.0242 s  ClockTime = 33 s

Time = 76s

DILUPBiCG:  Solving for Ux, Initial residual = 0.0477909, Final residual = 4.75436e-07, No Iterations 4
DILUPBiCG:  Solving for Uy, Initial residual = 0.0403952, Final residual = 4.27335e-07, No Iterations 4
DILUPBiCG:  Solving for Uz, Initial residual = 0.0614223, Final residual = 7.49506e-07, No Iterations 4
DICPCG:  Solving for p, Initial residual = 0.216826, Final residual = 9.13344e-07, No Iterations 88
time step continuity errors : sum local = 7.17601e-06, global = 2.57951e-07, cumulative = 3.71302e-06
ExecutionTime = 33.4958 s  ClockTime = 34 s

Time = 77s

DILUPBiCG:  Solving for Ux, Initial residual = 0.0479204, Final residual = 7.75687e-06, No Iterations 3
DILUPBiCG:  Solving for Uy, Initial residual = 0.0406401, Final residual = 4.14749e-07, No Iterations 4
DILUPBiCG:  Solving for Uz, Initial residual = 0.0618294, Final residual = 2.59405e-06, No Iterations 4
DICPCG:  Solving for p, Initial residual = 0.214402, Final residual = 8.66277e-07, No Iterations 89
time step continuity errors : sum local = 6.99917e-06, global = 3.19819e-07, cumulative = 4.03284e-06
ExecutionTime = 33.9346 s  ClockTime = 34 s

Time = 78s

DILUPBiCG:  Solving for Ux, Initial residual = 0.04761, Final residual = 7.57674e-06, No Iterations 3
DILUPBiCG:  Solving for Uy, Initial residual = 0.0415821, Final residual = 1.12651e-06, No Iterations 4
DILUPBiCG:  Solving for Uz, Initial residual = 0.0614986, Final residual = 6.32655e-06, No Iterations 4
DICPCG:  Solving for p, Initial residual = 0.210769, Final residual = 8.94579e-07, No Iterations 89
time step continuity errors : sum local = 7.44696e-06, global = 3.99148e-07, cumulative = 4.43199e-06
ExecutionTime = 34.3734 s  ClockTime = 35 s

Time = 79s

DILUPBiCG:  Solving for Ux, Initial residual = 0.0466978, Final residual = 7.05009e-06, No Iterations 3
DILUPBiCG:  Solving for Uy, Initial residual = 0.0420914, Final residual = 1.52937e-06, No Iterations 4
DILUPBiCG:  Solving for Uz, Initial residual = 0.0599805, Final residual = 2.3623e-06, No Iterations 4
DICPCG:  Solving for p, Initial residual = 0.206756, Final residual = 9.26002e-07, No Iterations 89
time step continuity errors : sum local = 7.94426e-06, global = 3.6766e-07, cumulative = 4.79965e-06
ExecutionTime = 34.81 s  ClockTime = 35 s

Time = 80s

DILUPBiCG:  Solving for Ux, Initial residual = 0.0462355, Final residual = 6.82872e-06, No Iterations 3
DILUPBiCG:  Solving for Uy, Initial residual = 0.0424926, Final residual = 8.88617e-06, No Iterations 3
DILUPBiCG:  Solving for Uz, Initial residual = 0.0587871, Final residual = 9.53447e-06, No Iterations 3
DICPCG:  Solving for p, Initial residual = 0.202289, Final residual = 8.73335e-07, No Iterations 90
time step continuity errors : sum local = 7.74624e-06, global = 2.80494e-07, cumulative = 5.08014e-06
ExecutionTime = 35.2378 s  ClockTime = 36 s

Time = 81s

DILUPBiCG:  Solving for Ux, Initial residual = 0.0469229, Final residual = 7.85507e-06, No Iterations 3
DILUPBiCG:  Solving for Uy, Initial residual = 0.0427787, Final residual = 8.12589e-07, No Iterations 4
DILUPBiCG:  Solving for Uz, Initial residual = 0.0581061, Final residual = 8.33134e-06, No Iterations 3
DICPCG:  Solving for p, Initial residual = 0.198261, Final residual = 8.90926e-07, No Iterations 91
time step continuity errors : sum local = 8.20105e-06, global = 2.61412e-07, cumulative = 5.34155e-06
ExecutionTime = 35.6777 s  ClockTime = 36 s

Time = 82s

DILUPBiCG:  Solving for Ux, Initial residual = 0.0474906, Final residual = 4.64434e-07, No Iterations 4
DILUPBiCG:  Solving for Uy, Initial residual = 0.0427769, Final residual = 9.01278e-07, No Iterations 4
DILUPBiCG:  Solving for Uz, Initial residual = 0.0573381, Final residual = 7.46998e-06, No Iterations 3
DICPCG:  Solving for p, Initial residual = 0.193556, Final residual = 9.46578e-07, No Iterations 93
time step continuity errors : sum local = 9.08425e-06, global = 2.35353e-07, cumulative = 5.57691e-06
ExecutionTime = 36.1197 s  ClockTime = 36 s

Time = 83s

DILUPBiCG:  Solving for Ux, Initial residual = 0.0478907, Final residual = 9.7699e-06, No Iterations 3
DILUPBiCG:  Solving for Uy, Initial residual = 0.0427875, Final residual = 5.32724e-07, No Iterations 4
DILUPBiCG:  Solving for Uz, Initial residual = 0.0567833, Final residual = 6.84619e-06, No Iterations 3
DICPCG:  Solving for p, Initial residual = 0.1888, Final residual = 8.38218e-07, No Iterations 95
time step continuity errors : sum local = 8.39725e-06, global = 1.72081e-07, cumulative = 5.74899e-06
ExecutionTime = 36.558 s  ClockTime = 37 s

Time = 84s

DILUPBiCG:  Solving for Ux, Initial residual = 0.0482729, Final residual = 6.18327e-06, No Iterations 3
DILUPBiCG:  Solving for Uy, Initial residual = 0.0426962, Final residual = 1.14501e-06, No Iterations 4
DILUPBiCG:  Solving for Uz, Initial residual = 0.0561045, Final residual = 7.91977e-06, No Iterations 3
DICPCG:  Solving for p, Initial residual = 0.183278, Final residual = 9.73701e-07, No Iterations 93
time step continuity errors : sum local = 1.01874e-05, global = 2.27992e-07, cumulative = 5.97698e-06
ExecutionTime = 36.9908 s  ClockTime = 37 s

Time = 85s

DILUPBiCG:  Solving for Ux, Initial residual = 0.0488223, Final residual = 6.03421e-06, No Iterations 3
DILUPBiCG:  Solving for Uy, Initial residual = 0.0429653, Final residual = 7.80431e-08, No Iterations 5
DILUPBiCG:  Solving for Uz, Initial residual = 0.0552227, Final residual = 8.50615e-06, No Iterations 3
DICPCG:  Solving for p, Initial residual = 0.17809, Final residual = 8.87749e-07, No Iterations 95
time step continuity errors : sum local = 9.69578e-06, global = 1.93637e-07, cumulative = 6.17062e-06
ExecutionTime = 37.438 s  ClockTime = 38 s

Time = 86s

DILUPBiCG:  Solving for Ux, Initial residual = 0.048943, Final residual = 5.69623e-06, No Iterations 3
DILUPBiCG:  Solving for Uy, Initial residual = 0.0428269, Final residual = 7.18988e-07, No Iterations 4
DILUPBiCG:  Solving for Uz, Initial residual = 0.0542775, Final residual = 7.70781e-06, No Iterations 3
DICPCG:  Solving for p, Initial residual = 0.173707, Final residual = 9.86425e-07, No Iterations 94
time step continuity errors : sum local = 1.12458e-05, global = 3.21677e-07, cumulative = 6.49229e-06
ExecutionTime = 37.8844 s  ClockTime = 38 s

Time = 87s

DILUPBiCG:  Solving for Ux, Initial residual = 0.0489898, Final residual = 5.34208e-06, No Iterations 3
DILUPBiCG:  Solving for Uy, Initial residual = 0.043069, Final residual = 5.13396e-07, No Iterations 4
DILUPBiCG:  Solving for Uz, Initial residual = 0.0532884, Final residual = 4.78945e-07, No Iterations 4
DICPCG:  Solving for p, Initial residual = 0.171604, Final residual = 9.64857e-07, No Iterations 95
time step continuity errors : sum local = 1.14898e-05, global = 3.02141e-07, cumulative = 6.79443e-06
ExecutionTime = 38.3381 s  ClockTime = 39 s

Time = 88s

DILUPBiCG:  Solving for Ux, Initial residual = 0.0489001, Final residual = 6.30889e-06, No Iterations 3
DILUPBiCG:  Solving for Uy, Initial residual = 0.0431656, Final residual = 4.09773e-07, No Iterations 4
DILUPBiCG:  Solving for Uz, Initial residual = 0.0521245, Final residual = 4.56514e-07, No Iterations 4
DICPCG:  Solving for p, Initial residual = 0.167226, Final residual = 9.2564e-07, No Iterations 96
time step continuity errors : sum local = 1.15377e-05, global = 2.65188e-07, cumulative = 7.05962e-06
ExecutionTime = 38.7857 s  ClockTime = 39 s

Time = 89s

DILUPBiCG:  Solving for Ux, Initial residual = 0.0488691, Final residual = 7.22225e-06, No Iterations 3
DILUPBiCG:  Solving for Uy, Initial residual = 0.0427654, Final residual = 3.5916e-07, No Iterations 4
DILUPBiCG:  Solving for Uz, Initial residual = 0.0505381, Final residual = 4.89746e-07, No Iterations 4
DICPCG:  Solving for p, Initial residual = 0.163663, Final residual = 9.27769e-07, No Iterations 97
time step continuity errors : sum local = 1.2112e-05, global = 2.61939e-07, cumulative = 7.32156e-06
ExecutionTime = 39.2354 s  ClockTime = 40 s

Time = 90s

DILUPBiCG:  Solving for Ux, Initial residual = 0.0481656, Final residual = 7.19885e-06, No Iterations 3
DILUPBiCG:  Solving for Uy, Initial residual = 0.0421588, Final residual = 3.14741e-07, No Iterations 4
DILUPBiCG:  Solving for Uz, Initial residual = 0.0486939, Final residual = 8.54373e-06, No Iterations 3
DICPCG:  Solving for p, Initial residual = 0.159261, Final residual = 9.91566e-07, No Iterations 97
time step continuity errors : sum local = 1.35851e-05, global = 2.3132e-07, cumulative = 7.55288e-06
ExecutionTime = 39.6765 s  ClockTime = 40 s

Time = 91s

DILUPBiCG:  Solving for Ux, Initial residual = 0.0472542, Final residual = 8.90436e-07, No Iterations 4
DILUPBiCG:  Solving for Uy, Initial residual = 0.0414801, Final residual = 4.09664e-07, No Iterations 4
DILUPBiCG:  Solving for Uz, Initial residual = 0.0478567, Final residual = 8.48578e-07, No Iterations 4
DICPCG:  Solving for p, Initial residual = 0.155397, Final residual = 9.28955e-07, No Iterations 99
time step continuity errors : sum local = 1.33617e-05, global = 1.18367e-07, cumulative = 7.67125e-06
ExecutionTime = 40.1383 s  ClockTime = 40 s

Time = 92s

DILUPBiCG:  Solving for Ux, Initial residual = 0.0467912, Final residual = 6.47564e-06, No Iterations 3
DILUPBiCG:  Solving for Uy, Initial residual = 0.0410643, Final residual = 3.79476e-07, No Iterations 4
DILUPBiCG:  Solving for Uz, Initial residual = 0.047403, Final residual = 9.79506e-07, No Iterations 4
DICPCG:  Solving for p, Initial residual = 0.151262, Final residual = 9.5579e-07, No Iterations 99
time step continuity errors : sum local = 1.44454e-05, global = 1.90509e-07, cumulative = 7.86176e-06
ExecutionTime = 40.5961 s  ClockTime = 41 s

Time = 93s

DILUPBiCG:  Solving for Ux, Initial residual = 0.046449, Final residual = 6.53259e-06, No Iterations 3
DILUPBiCG:  Solving for Uy, Initial residual = 0.0405629, Final residual = 7.183e-06, No Iterations 3
DILUPBiCG:  Solving for Uz, Initial residual = 0.0470794, Final residual = 8.3836e-07, No Iterations 4
DICPCG:  Solving for p, Initial residual = 0.150236, Final residual = 9.53709e-07, No Iterations 99
time step continuity errors : sum local = 1.51962e-05, global = 3.69821e-07, cumulative = 8.23158e-06
ExecutionTime = 41.0416 s  ClockTime = 41 s

Time = 94s

DILUPBiCG:  Solving for Ux, Initial residual = 0.0465569, Final residual = 8.78279e-06, No Iterations 3
DILUPBiCG:  Solving for Uy, Initial residual = 0.0404743, Final residual = 5.36751e-06, No Iterations 3
DILUPBiCG:  Solving for Uz, Initial residual = 0.0466376, Final residual = 6.88913e-07, No Iterations 4
DICPCG:  Solving for p, Initial residual = 0.144598, Final residual = 9.56458e-07, No Iterations 97
time step continuity errors : sum local = 1.58878e-05, global = 1.04279e-06, cumulative = 9.27437e-06
ExecutionTime = 41.4818 s  ClockTime = 42 s

Time = 95s

DILUPBiCG:  Solving for Ux, Initial residual = 0.047994, Final residual = 8.05562e-07, No Iterations 4
DILUPBiCG:  Solving for Uy, Initial residual = 0.0452229, Final residual = 8.85848e-06, No Iterations 3
DILUPBiCG:  Solving for Uz, Initial residual = 0.0486039, Final residual = 7.12994e-06, No Iterations 3
DICPCG:  Solving for p, Initial residual = 0.142975, Final residual = 9.77478e-07, No Iterations 95
time step continuity errors : sum local = 1.68603e-05, global = 1.26801e-06, cumulative = 1.05424e-05
ExecutionTime = 41.9239 s  ClockTime = 42 s

Time = 96s

DILUPBiCG:  Solving for Ux, Initial residual = 0.0478181, Final residual = 8.01216e-06, No Iterations 3
DILUPBiCG:  Solving for Uy, Initial residual = 0.0403022, Final residual = 4.93401e-06, No Iterations 3
DILUPBiCG:  Solving for Uz, Initial residual = 0.0473169, Final residual = 7.37301e-06, No Iterations 3
DICPCG:  Solving for p, Initial residual = 0.140225, Final residual = 8.73892e-07, No Iterations 96
time step continuity errors : sum local = 1.58355e-05, global = 5.94515e-07, cumulative = 1.11369e-05
ExecutionTime = 42.3567 s  ClockTime = 43 s

Time = 97s

DILUPBiCG:  Solving for Ux, Initial residual = 0.0482227, Final residual = 5.44278e-06, No Iterations 3
DILUPBiCG:  Solving for Uy, Initial residual = 0.0398324, Final residual = 4.90839e-06, No Iterations 3
DILUPBiCG:  Solving for Uz, Initial residual = 0.0476404, Final residual = 6.7584e-06, No Iterations 3
DICPCG:  Solving for p, Initial residual = 0.139401, Final residual = 8.38225e-07, No Iterations 98
time step continuity errors : sum local = 1.59786e-05, global = -9.41244e-08, cumulative = 1.10428e-05
ExecutionTime = 42.8029 s  ClockTime = 43 s

Time = 98s

DILUPBiCG:  Solving for Ux, Initial residual = 0.0491848, Final residual = 9.77085e-06, No Iterations 3
DILUPBiCG:  Solving for Uy, Initial residual = 0.0393965, Final residual = 4.40283e-06, No Iterations 3
DILUPBiCG:  Solving for Uz, Initial residual = 0.0483553, Final residual = 7.20111e-06, No Iterations 3
DICPCG:  Solving for p, Initial residual = 0.138925, Final residual = 9.35864e-07, No Iterations 99
time step continuity errors : sum local = 1.87475e-05, global = -4.27085e-07, cumulative = 1.06157e-05
ExecutionTime = 43.2454 s  ClockTime = 44 s

Time = 99s

DILUPBiCG:  Solving for Ux, Initial residual = 0.0496543, Final residual = 9.35214e-06, No Iterations 3
DILUPBiCG:  Solving for Uy, Initial residual = 0.0386357, Final residual = 4.52684e-06, No Iterations 3
DILUPBiCG:  Solving for Uz, Initial residual = 0.0483849, Final residual = 7.384e-06, No Iterations 3
DICPCG:  Solving for p, Initial residual = 0.137926, Final residual = 9.71053e-07, No Iterations 98
time step continuity errors : sum local = 2.04233e-05, global = -6.08288e-07, cumulative = 1.00074e-05
ExecutionTime = 43.6894 s  ClockTime = 44 s

Time = 100s

DILUPBiCG:  Solving for Ux, Initial residual = 0.0501403, Final residual = 1.97527e-06, No Iterations 4
DILUPBiCG:  Solving for Uy, Initial residual = 0.0380182, Final residual = 5.40046e-06, No Iterations 3
DILUPBiCG:  Solving for Uz, Initial residual = 0.0475526, Final residual = 7.54255e-07, No Iterations 4
DICPCG:  Solving for p, Initial residual = 0.136214, Final residual = 9.60148e-07, No Iterations 100
time step continuity errors : sum local = 2.12184e-05, global = -8.64463e-07, cumulative = 9.14293e-06
ExecutionTime = 44.4142 s  ClockTime = 45 s

Time = 101s

DILUPBiCG:  Solving for Ux, Initial residual = 0.0504029, Final residual = 9.12138e-06, No Iterations 3
DILUPBiCG:  Solving for Uy, Initial residual = 0.0374324, Final residual = 5.24626e-06, No Iterations 3
DILUPBiCG:  Solving for Uz, Initial residual = 0.0469284, Final residual = 6.82027e-06, No Iterations 3
DICPCG:  Solving for p, Initial residual = 0.135083, Final residual = 9.88767e-07, No Iterations 98
time step continuity errors : sum local = 2.30022e-05, global = -6.37612e-07, cumulative = 8.50532e-06
ExecutionTime = 44.8533 s  ClockTime = 45 s

Time = 102s

DILUPBiCG:  Solving for Ux, Initial residual = 0.0503322, Final residual = 8.96875e-06, No Iterations 3
DILUPBiCG:  Solving for Uy, Initial residual = 0.0370769, Final residual = 4.81451e-06, No Iterations 3
DILUPBiCG:  Solving for Uz, Initial residual = 0.0462866, Final residual = 9.35663e-06, No Iterations 3
DICPCG:  Solving for p, Initial residual = 0.13394, Final residual = 8.53314e-07, No Iterations 99
time step continuity errors : sum local = 2.08926e-05, global = -5.98601e-07, cumulative = 7.90672e-06
ExecutionTime = 45.2988 s  ClockTime = 46 s

Time = 103s

DILUPBiCG:  Solving for Ux, Initial residual = 0.0502738, Final residual = 7.74588e-06, No Iterations 3
DILUPBiCG:  Solving for Uy, Initial residual = 0.0365318, Final residual = 4.75897e-06, No Iterations 3
DILUPBiCG:  Solving for Uz, Initial residual = 0.0455682, Final residual = 7.01803e-06, No Iterations 3
DICPCG:  Solving for p, Initial residual = 0.132788, Final residual = 9.41275e-07, No Iterations 97
time step continuity errors : sum local = 2.43157e-05, global = 1.75215e-07, cumulative = 8.08194e-06
ExecutionTime = 45.7378 s  ClockTime = 46 s

Time = 104s

DILUPBiCG:  Solving for Ux, Initial residual = 0.0496687, Final residual = 7.89746e-06, No Iterations 3
DILUPBiCG:  Solving for Uy, Initial residual = 0.0359584, Final residual = 9.65995e-07, No Iterations 4
DILUPBiCG:  Solving for Uz, Initial residual = 0.0443664, Final residual = 5.26065e-06, No Iterations 3
DICPCG:  Solving for p, Initial residual = 0.131083, Final residual = 9.8622e-07, No Iterations 98
time step continuity errors : sum local = 2.68806e-05, global = 6.8475e-07, cumulative = 8.76669e-06
ExecutionTime = 46.1948 s  ClockTime = 46 s

Time = 105s

DILUPBiCG:  Solving for Ux, Initial residual = 0.0490589, Final residual = 8.72261e-06, No Iterations 3
DILUPBiCG:  Solving for Uy, Initial residual = 0.0356047, Final residual = 7.29554e-07, No Iterations 4
DILUPBiCG:  Solving for Uz, Initial residual = 0.0432866, Final residual = 5.06458e-06, No Iterations 3
DICPCG:  Solving for p, Initial residual = 0.130067, Final residual = 9.90364e-07, No Iterations 97
time step continuity errors : sum local = 2.85516e-05, global = 7.09045e-07, cumulative = 9.47573e-06
ExecutionTime = 46.6365 s  ClockTime = 47 s

Time = 106s

DILUPBiCG:  Solving for Ux, Initial residual = 0.0487259, Final residual = 7.21813e-06, No Iterations 3
DILUPBiCG:  Solving for Uy, Initial residual = 0.0353194, Final residual = 1.65069e-06, No Iterations 4
DILUPBiCG:  Solving for Uz, Initial residual = 0.042553, Final residual = 4.73289e-06, No Iterations 3
DICPCG:  Solving for p, Initial residual = 0.127445, Final residual = 8.48911e-07, No Iterations 98
time step continuity errors : sum local = 2.59791e-05, global = 3.29774e-07, cumulative = 9.80551e-06
ExecutionTime = 47.0815 s  ClockTime = 47 s

Time = 107s

DILUPBiCG:  Solving for Ux, Initial residual = 0.0486646, Final residual = 6.07859e-06, No Iterations 3
DILUPBiCG:  Solving for Uy, Initial residual = 0.0350787, Final residual = 4.0533e-06, No Iterations 3
DILUPBiCG:  Solving for Uz, Initial residual = 0.0425755, Final residual = 4.4333e-06, No Iterations 3
DICPCG:  Solving for p, Initial residual = 0.125934, Final residual = 8.53556e-07, No Iterations 98
time step continuity errors : sum local = 2.76481e-05, global = 1.68025e-07, cumulative = 9.97353e-06
ExecutionTime = 47.5189 s  ClockTime = 48 s

Time = 108s

DILUPBiCG:  Solving for Ux, Initial residual = 0.0484466, Final residual = 5.11669e-06, No Iterations 3
DILUPBiCG:  Solving for Uy, Initial residual = 0.0348366, Final residual = 4.18753e-06, No Iterations 3
DILUPBiCG:  Solving for Uz, Initial residual = 0.0431615, Final residual = 4.83824e-06, No Iterations 3
DICPCG:  Solving for p, Initial residual = 0.126696, Final residual = 9.00789e-07, No Iterations 97
time step continuity errors : sum local = 3.08818e-05, global = 3.12907e-07, cumulative = 1.02864e-05
ExecutionTime = 47.9519 s  ClockTime = 48 s

Time = 109s

DILUPBiCG:  Solving for Ux, Initial residual = 0.0482276, Final residual = 5.05482e-06, No Iterations 3
DILUPBiCG:  Solving for Uy, Initial residual = 0.0345634, Final residual = 3.52357e-06, No Iterations 3
DILUPBiCG:  Solving for Uz, Initial residual = 0.0431094, Final residual = 5.21095e-06, No Iterations 3
DICPCG:  Solving for p, Initial residual = 0.125848, Final residual = 9.90175e-07, No Iterations 96
time step continuity errors : sum local = 3.57782e-05, global = 5.51835e-07, cumulative = 1.08383e-05
ExecutionTime = 48.3864 s  ClockTime = 49 s

Time = 110s

DILUPBiCG:  Solving for Ux, Initial residual = 0.0484065, Final residual = 5.61151e-06, No Iterations 3
DILUPBiCG:  Solving for Uy, Initial residual = 0.0339755, Final residual = 5.84308e-06, No Iterations 3
DILUPBiCG:  Solving for Uz, Initial residual = 0.0427246, Final residual = 5.02113e-06, No Iterations 3
DICPCG:  Solving for p, Initial residual = 0.124148, Final residual = 8.802e-07, No Iterations 99
time step continuity errors : sum local = 3.34315e-05, global = 4.90237e-07, cumulative = 1.13285e-05
ExecutionTime = 48.8362 s  ClockTime = 49 s

Time = 111s

DILUPBiCG:  Solving for Ux, Initial residual = 0.048222, Final residual = 6.11781e-07, No Iterations 4
DILUPBiCG:  Solving for Uy, Initial residual = 0.0334847, Final residual = 5.67287e-06, No Iterations 3
DILUPBiCG:  Solving for Uz, Initial residual = 0.0418304, Final residual = 7.68673e-07, No Iterations 4
DICPCG:  Solving for p, Initial residual = 0.122641, Final residual = 8.31507e-07, No Iterations 99
time step continuity errors : sum local = 3.32244e-05, global = 5.20702e-08, cumulative = 1.13806e-05
ExecutionTime = 49.2908 s  ClockTime = 50 s

Time = 112s

DILUPBiCG:  Solving for Ux, Initial residual = 0.0483175, Final residual = 8.47227e-07, No Iterations 4
DILUPBiCG:  Solving for Uy, Initial residual = 0.033312, Final residual = 6.75185e-06, No Iterations 3
DILUPBiCG:  Solving for Uz, Initial residual = 0.04112, Final residual = 4.47694e-06, No Iterations 3
DICPCG:  Solving for p, Initial residual = 0.122201, Final residual = 9.68272e-07, No Iterations 98
time step continuity errors : sum local = 4.07732e-05, global = -2.45663e-08, cumulative = 1.1356e-05
ExecutionTime = 49.7352 s  ClockTime = 50 s

Time = 113s

DILUPBiCG:  Solving for Ux, Initial residual = 0.0483544, Final residual = 8.30905e-06, No Iterations 3
DILUPBiCG:  Solving for Uy, Initial residual = 0.0332592, Final residual = 4.3153e-06, No Iterations 3
DILUPBiCG:  Solving for Uz, Initial residual = 0.0405796, Final residual = 7.10872e-06, No Iterations 3
DICPCG:  Solving for p, Initial residual = 0.122042, Final residual = 8.63397e-07, No Iterations 98
time step continuity errors : sum local = 3.84264e-05, global = 2.60473e-07, cumulative = 1.16165e-05
ExecutionTime = 50.175 s  ClockTime = 50 s

Time = 114s

DILUPBiCG:  Solving for Ux, Initial residual = 0.0483727, Final residual = 8.04383e-06, No Iterations 3
DILUPBiCG:  Solving for Uy, Initial residual = 0.0334085, Final residual = 4.47837e-06, No Iterations 3
DILUPBiCG:  Solving for Uz, Initial residual = 0.0400422, Final residual = 6.22966e-06, No Iterations 3
DICPCG:  Solving for p, Initial residual = 0.117234, Final residual = 8.60334e-07, No Iterations 100
time step continuity errors : sum local = 4.046e-05, global = 6.40275e-07, cumulative = 1.22568e-05
ExecutionTime = 50.6172 s  ClockTime = 51 s

Time = 115s

DILUPBiCG:  Solving for Ux, Initial residual = 0.0478953, Final residual = 6.62344e-07, No Iterations 4
DILUPBiCG:  Solving for Uy, Initial residual = 0.0331205, Final residual = 5.22932e-06, No Iterations 3
DILUPBiCG:  Solving for Uz, Initial residual = 0.0398977, Final residual = 4.9655e-06, No Iterations 3
DICPCG:  Solving for p, Initial residual = 0.114127, Final residual = 8.97417e-07, No Iterations 98
time step continuity errors : sum local = 4.45077e-05, global = 9.87584e-07, cumulative = 1.32443e-05
ExecutionTime = 51.0692 s  ClockTime = 51 s

Time = 116s

DILUPBiCG:  Solving for Ux, Initial residual = 0.0477416, Final residual = 1.87812e-06, No Iterations 4
DILUPBiCG:  Solving for Uy, Initial residual = 0.0329733, Final residual = 5.19798e-06, No Iterations 3
DILUPBiCG:  Solving for Uz, Initial residual = 0.0397674, Final residual = 6.79154e-06, No Iterations 3
DICPCG:  Solving for p, Initial residual = 0.113782, Final residual = 9.28435e-07, No Iterations 99
time step continuity errors : sum local = 4.84837e-05, global = 1.09661e-06, cumulative = 1.4341e-05
ExecutionTime = 51.5225 s  ClockTime = 52 s

Time = 117s

DILUPBiCG:  Solving for Ux, Initial residual = 0.0476706, Final residual = 3.02675e-06, No Iterations 4
DILUPBiCG:  Solving for Uy, Initial residual = 0.0332591, Final residual = 5.64053e-06, No Iterations 3
DILUPBiCG:  Solving for Uz, Initial residual = 0.0398367, Final residual = 9.0157e-06, No Iterations 3
DICPCG:  Solving for p, Initial residual = 0.114819, Final residual = 8.88108e-07, No Iterations 100
time step continuity errors : sum local = 4.87169e-05, global = 1.2828e-06, cumulative = 1.56238e-05
ExecutionTime = 51.9721 s  ClockTime = 52 s

Time = 118s

DILUPBiCG:  Solving for Ux, Initial residual = 0.0475486, Final residual = 8.99887e-07, No Iterations 4
DILUPBiCG:  Solving for Uy, Initial residual = 0.033791, Final residual = 4.49049e-06, No Iterations 3
DILUPBiCG:  Solving for Uz, Initial residual = 0.0405762, Final residual = 9.34703e-06, No Iterations 3
DICPCG:  Solving for p, Initial residual = 0.115387, Final residual = 9.20331e-07, No Iterations 100
time step continuity errors : sum local = 5.28899e-05, global = 1.43556e-06, cumulative = 1.70593e-05
ExecutionTime = 52.4223 s  ClockTime = 53 s

Time = 119s

DILUPBiCG:  Solving for Ux, Initial residual = 0.0468758, Final residual = 9.47157e-06, No Iterations 3
DILUPBiCG:  Solving for Uy, Initial residual = 0.0331742, Final residual = 2.50324e-07, No Iterations 4
DILUPBiCG:  Solving for Uz, Initial residual = 0.0399816, Final residual = 7.79576e-06, No Iterations 3
DICPCG:  Solving for p, Initial residual = 0.114765, Final residual = 9.80058e-07, No Iterations 99
time step continuity errors : sum local = 5.87636e-05, global = 1.13057e-06, cumulative = 1.81899e-05
ExecutionTime = 52.877 s  ClockTime = 53 s

Time = 120s

DILUPBiCG:  Solving for Ux, Initial residual = 0.046675, Final residual = 4.66579e-07, No Iterations 4
DILUPBiCG:  Solving for Uy, Initial residual = 0.0322959, Final residual = 5.76446e-06, No Iterations 3
DILUPBiCG:  Solving for Uz, Initial residual = 0.0397847, Final residual = 7.19078e-06, No Iterations 3
DICPCG:  Solving for p, Initial residual = 0.112611, Final residual = 8.88046e-07, No Iterations 100
time step continuity errors : sum local = 5.59096e-05, global = 1.14744e-06, cumulative = 1.93373e-05
ExecutionTime = 53.3348 s  ClockTime = 54 s

Time = 121s

DILUPBiCG:  Solving for Ux, Initial residual = 0.0470542, Final residual = 4.64903e-07, No Iterations 4
DILUPBiCG:  Solving for Uy, Initial residual = 0.0318606, Final residual = 5.13868e-07, No Iterations 4
DILUPBiCG:  Solving for Uz, Initial residual = 0.0399313, Final residual = 2.11133e-06, No Iterations 4
DICPCG:  Solving for p, Initial residual = 0.110349, Final residual = 9.5346e-07, No Iterations 101
time step continuity errors : sum local = 6.32049e-05, global = 1.58382e-06, cumulative = 2.09211e-05
ExecutionTime = 53.8028 s  ClockTime = 54 s

Time = 122s

DILUPBiCG:  Solving for Ux, Initial residual = 0.0469665, Final residual = 5.62964e-07, No Iterations 4
DILUPBiCG:  Solving for Uy, Initial residual = 0.0317571, Final residual = 3.65357e-07, No Iterations 4
DILUPBiCG:  Solving for Uz, Initial residual = 0.0399872, Final residual = 9.52453e-06, No Iterations 3
DICPCG:  Solving for p, Initial residual = 0.108936, Final residual = 8.86989e-07, No Iterations 100
time step continuity errors : sum local = 6.16733e-05, global = 1.59797e-06, cumulative = 2.25191e-05
ExecutionTime = 54.2691 s  ClockTime = 55 s

Time = 123s

DILUPBiCG:  Solving for Ux, Initial residual = 0.0469005, Final residual = 6.4573e-07, No Iterations 4
DILUPBiCG:  Solving for Uy, Initial residual = 0.031623, Final residual = 5.17057e-07, No Iterations 4
DILUPBiCG:  Solving for Uz, Initial residual = 0.0399258, Final residual = 9.10188e-06, No Iterations 3
DICPCG:  Solving for p, Initial residual = 0.108363, Final residual = 8.8136e-07, No Iterations 100
time step continuity errors : sum local = 6.4174e-05, global = 1.79729e-06, cumulative = 2.43164e-05
ExecutionTime = 54.7258 s  ClockTime = 55 s

Time = 124s

DILUPBiCG:  Solving for Ux, Initial residual = 0.0468962, Final residual = 5.01918e-07, No Iterations 4
DILUPBiCG:  Solving for Uy, Initial residual = 0.0313709, Final residual = 3.83243e-07, No Iterations 4
DILUPBiCG:  Solving for Uz, Initial residual = 0.0396595, Final residual = 7.30727e-06, No Iterations 3
DICPCG:  Solving for p, Initial residual = 0.107547, Final residual = 9.86665e-07, No Iterations 100
time step continuity errors : sum local = 7.51979e-05, global = 2.0003e-06, cumulative = 2.63167e-05
ExecutionTime = 55.1875 s  ClockTime = 56 s

Time = 125s

DILUPBiCG:  Solving for Ux, Initial residual = 0.0465055, Final residual = 9.1666e-06, No Iterations 3
DILUPBiCG:  Solving for Uy, Initial residual = 0.031141, Final residual = 8.8994e-06, No Iterations 3
DILUPBiCG:  Solving for Uz, Initial residual = 0.0391952, Final residual = 6.31357e-06, No Iterations 3
DICPCG:  Solving for p, Initial residual = 0.107139, Final residual = 9.06269e-07, No Iterations 100
time step continuity errors : sum local = 7.20738e-05, global = 1.5956e-06, cumulative = 2.79123e-05
ExecutionTime = 55.6333 s  ClockTime = 56 s

Time = 126s

DILUPBiCG:  Solving for Ux, Initial residual = 0.0460997, Final residual = 6.86416e-06, No Iterations 3
DILUPBiCG:  Solving for Uy, Initial residual = 0.0309786, Final residual = 3.52924e-07, No Iterations 4
DILUPBiCG:  Solving for Uz, Initial residual = 0.0388647, Final residual = 5.08919e-06, No Iterations 3
DICPCG:  Solving for p, Initial residual = 0.106415, Final residual = 9.61871e-07, No Iterations 100
time step continuity errors : sum local = 8.00333e-05, global = 1.84366e-06, cumulative = 2.9756e-05
ExecutionTime = 56.1064 s  ClockTime = 56 s

Time = 127s

DILUPBiCG:  Solving for Ux, Initial residual = 0.0458659, Final residual = 4.25265e-07, No Iterations 4
DILUPBiCG:  Solving for Uy, Initial residual = 0.0310248, Final residual = 3.30312e-07, No Iterations 4
DILUPBiCG:  Solving for Uz, Initial residual = 0.0387014, Final residual = 5.2598e-06, No Iterations 3
DICPCG:  Solving for p, Initial residual = 0.10594, Final residual = 9.08855e-07, No Iterations 100
time step continuity errors : sum local = 7.88036e-05, global = 1.4135e-06, cumulative = 3.11695e-05
ExecutionTime = 56.594 s  ClockTime = 57 s

Time = 128s

DILUPBiCG:  Solving for Ux, Initial residual = 0.0452026, Final residual = 4.02325e-07, No Iterations 4
DILUPBiCG:  Solving for Uy, Initial residual = 0.0310042, Final residual = 6.0218e-07, No Iterations 4
DILUPBiCG:  Solving for Uz, Initial residual = 0.038613, Final residual = 6.89554e-06, No Iterations 3
DICPCG:  Solving for p, Initial residual = 0.105923, Final residual = 9.10709e-07, No Iterations 100
time step continuity errors : sum local = 8.24208e-05, global = 1.2906e-06, cumulative = 3.24601e-05
ExecutionTime = 57.0608 s  ClockTime = 57 s

Time = 129s

DILUPBiCG:  Solving for Ux, Initial residual = 0.0451596, Final residual = 8.22471e-06, No Iterations 3
DILUPBiCG:  Solving for Uy, Initial residual = 0.030904, Final residual = 7.83478e-06, No Iterations 3
DILUPBiCG:  Solving for Uz, Initial residual = 0.0389057, Final residual = 4.01123e-07, No Iterations 4
DICPCG:  Solving for p, Initial residual = 0.106036, Final residual = 8.94253e-07, No Iterations 101
time step continuity errors : sum local = 8.45732e-05, global = 5.50713e-07, cumulative = 3.30108e-05
ExecutionTime = 57.5141 s  ClockTime = 58 s

Time = 130s

DILUPBiCG:  Solving for Ux, Initial residual = 0.0450639, Final residual = 5.87481e-06, No Iterations 3
DILUPBiCG:  Solving for Uy, Initial residual = 0.0308291, Final residual = 7.5835e-06, No Iterations 3
DILUPBiCG:  Solving for Uz, Initial residual = 0.0395888, Final residual = 5.54267e-06, No Iterations 4
DICPCG:  Solving for p, Initial residual = 0.106537, Final residual = 9.08104e-07, No Iterations 101
time step continuity errors : sum local = 8.97353e-05, global = 2.67099e-07, cumulative = 3.32779e-05
ExecutionTime = 57.9713 s  ClockTime = 58 s

Time = 131s

DILUPBiCG:  Solving for Ux, Initial residual = 0.0449532, Final residual = 6.39914e-06, No Iterations 3
DILUPBiCG:  Solving for Uy, Initial residual = 0.0308259, Final residual = 2.67876e-07, No Iterations 4
DILUPBiCG:  Solving for Uz, Initial residual = 0.0405781, Final residual = 5.22707e-06, No Iterations 4
DICPCG:  Solving for p, Initial residual = 0.107651, Final residual = 9.02997e-07, No Iterations 101
time step continuity errors : sum local = 9.34247e-05, global = 4.24308e-07, cumulative = 3.37022e-05
ExecutionTime = 58.4287 s  ClockTime = 59 s

Time = 132s

DILUPBiCG:  Solving for Ux, Initial residual = 0.0447718, Final residual = 6.4741e-06, No Iterations 3
DILUPBiCG:  Solving for Uy, Initial residual = 0.0307169, Final residual = 3.32195e-07, No Iterations 4
DILUPBiCG:  Solving for Uz, Initial residual = 0.0414189, Final residual = 4.43594e-07, No Iterations 4
DICPCG:  Solving for p, Initial residual = 0.10793, Final residual = 9.02055e-07, No Iterations 99
time step continuity errors : sum local = 9.75193e-05, global = 4.08086e-07, cumulative = 3.41103e-05
ExecutionTime = 58.8886 s  ClockTime = 59 s

Time = 133s

DILUPBiCG:  Solving for Ux, Initial residual = 0.0444612, Final residual = 6.77252e-06, No Iterations 3
DILUPBiCG:  Solving for Uy, Initial residual = 0.0306006, Final residual = 3.04896e-07, No Iterations 4
DILUPBiCG:  Solving for Uz, Initial residual = 0.0419499, Final residual = 6.37506e-07, No Iterations 4
DICPCG:  Solving for p, Initial residual = 0.109163, Final residual = 8.99217e-07, No Iterations 99
time step continuity errors : sum local = 0.000101434, global = 9.16005e-07, cumulative = 3.50263e-05
ExecutionTime = 59.355 s  ClockTime = 60 s

Time = 134s

DILUPBiCG:  Solving for Ux, Initial residual = 0.0443563, Final residual = 5.08373e-07, No Iterations 4
DILUPBiCG:  Solving for Uy, Initial residual = 0.030421, Final residual = 3.24117e-07, No Iterations 4
DILUPBiCG:  Solving for Uz, Initial residual = 0.0418296, Final residual = 3.62138e-07, No Iterations 4
DICPCG:  Solving for p, Initial residual = 0.11094, Final residual = 9.4745e-07, No Iterations 99
time step continuity errors : sum local = 0.000111689, global = 2.3191e-06, cumulative = 3.73454e-05
ExecutionTime = 59.8365 s  ClockTime = 60 s

Time = 135s

DILUPBiCG:  Solving for Ux, Initial residual = 0.0441976, Final residual = 6.75823e-06, No Iterations 3
DILUPBiCG:  Solving for Uy, Initial residual = 0.0303647, Final residual = 5.6982e-06, No Iterations 3
DILUPBiCG:  Solving for Uz, Initial residual = 0.0421322, Final residual = 4.45329e-07, No Iterations 4
DICPCG:  Solving for p, Initial residual = 0.111093, Final residual = 9.87475e-07, No Iterations 100
time step continuity errors : sum local = 0.000121662, global = 2.53516e-06, cumulative = 3.98805e-05
ExecutionTime = 60.2876 s  ClockTime = 61 s

Time = 136s

DILUPBiCG:  Solving for Ux, Initial residual = 0.0440812, Final residual = 5.35655e-06, No Iterations 3
DILUPBiCG:  Solving for Uy, Initial residual = 0.0302198, Final residual = 3.74026e-06, No Iterations 3
DILUPBiCG:  Solving for Uz, Initial residual = 0.0420526, Final residual = 4.88948e-07, No Iterations 4
DICPCG:  Solving for p, Initial residual = 0.110535, Final residual = 8.80769e-07, No Iterations 100
time step continuity errors : sum local = 0.000113623, global = 1.05959e-06, cumulative = 4.09401e-05
ExecutionTime = 60.745 s  ClockTime = 61 s

Time = 137s

DILUPBiCG:  Solving for Ux, Initial residual = 0.0440064, Final residual = 5.86102e-06, No Iterations 3
DILUPBiCG:  Solving for Uy, Initial residual = 0.0300341, Final residual = 3.89828e-06, No Iterations 3
DILUPBiCG:  Solving for Uz, Initial residual = 0.0420492, Final residual = 5.57184e-06, No Iterations 3
DICPCG:  Solving for p, Initial residual = 0.109927, Final residual = 9.36258e-07, No Iterations 101
time step continuity errors : sum local = 0.000127336, global = 9.62437e-07, cumulative = 4.19025e-05
ExecutionTime = 61.1906 s  ClockTime = 62 s

Time = 138s

[...]
DILUPBiCG:  Solving for Uy, Initial residual = 0.0301398, Final residual = 3.35586e-06, No Iterations 3
DILUPBiCG:  Solving for Uz, Initial residual = 0.0484886, Final residual = 5.69467e-06, No Iterations 3
DICPCG:  Solving for p, Initial residual = 0.118956, Final residual = 9.90696e-07, No Iterations 95
time step continuity errors : sum local = 2.07758e+09, global = 5.74891e+07, cumulative = 6.83411e+08
ExecutionTime = 442.937 s  ClockTime = 444 s

Time = 967s

DILUPBiCG:  Solving for Ux, Initial residual = 0.0407747, Final residual = 6.05473e-06, No Iterations 3
DILUPBiCG:  Solving for Uy, Initial residual = 0.0304182, Final residual = 3.41401e-06, No Iterations 3
DILUPBiCG:  Solving for Uz, Initial residual = 0.0483834, Final residual = 5.83649e-06, No Iterations 3
DICPCG:  Solving for p, Initial residual = 0.118914, Final residual = 9.64437e-07, No Iterations 95
time step continuity errors : sum local = 2.09929e+09, global = 5.02579e+07, cumulative = 7.33669e+08
ExecutionTime = 443.368 s  ClockTime = 444 s

Time = 968s

DILUPBiCG:  Solving for Ux, Initial residual = 0.0407525, Final residual = 5.05838e-06, No Iterations 3
DILUPBiCG:  Solving for Uy, Initial residual = 0.0307438, Final residual = 6.88994e-06, No Iterations 3
DILUPBiCG:  Solving for Uz, Initial residual = 0.0484348, Final residual = 5.83409e-06, No Iterations 3
DICPCG:  Solving for p, Initial residual = 0.120365, Final residual = 9.43568e-07, No Iterations 95
time step continuity errors : sum local = 2.12745e+09, global = 4.11736e+07, cumulative = 7.74843e+08
ExecutionTime = 443.798 s  ClockTime = 445 s

Time = 969s

DILUPBiCG:  Solving for Ux, Initial residual = 0.0408688, Final residual = 4.30225e-06, No Iterations 3
DILUPBiCG:  Solving for Uy, Initial residual = 0.0307179, Final residual = 9.27003e-06, No Iterations 3
DILUPBiCG:  Solving for Uz, Initial residual = 0.0486696, Final residual = 8.54865e-06, No Iterations 3
DICPCG:  Solving for p, Initial residual = 0.121167, Final residual = 9.61292e-07, No Iterations 95
time step continuity errors : sum local = 2.245e+09, global = 4.97638e+07, cumulative = 8.24607e+08
ExecutionTime = 444.229 s  ClockTime = 445 s

Time = 970s

DILUPBiCG:  Solving for Ux, Initial residual = 0.0409974, Final residual = 4.85103e-06, No Iterations 3
DILUPBiCG:  Solving for Uy, Initial residual = 0.0305897, Final residual = 3.36323e-06, No Iterations 3
DILUPBiCG:  Solving for Uz, Initial residual = 0.0483817, Final residual = 8.99548e-06, No Iterations 3
DICPCG:  Solving for p, Initial residual = 0.120893, Final residual = 9.85088e-07, No Iterations 94
time step continuity errors : sum local = 2.38953e+09, global = 5.68985e+07, cumulative = 8.81505e+08
ExecutionTime = 444.658 s  ClockTime = 446 s

Time = 971s

DILUPBiCG:  Solving for Ux, Initial residual = 0.04087, Final residual = 4.56752e-06, No Iterations 3
DILUPBiCG:  Solving for Uy, Initial residual = 0.0304812, Final residual = 3.51901e-06, No Iterations 3
DILUPBiCG:  Solving for Uz, Initial residual = 0.0476847, Final residual = 6.30113e-06, No Iterations 3
DICPCG:  Solving for p, Initial residual = 0.122129, Final residual = 9.4287e-07, No Iterations 96
time step continuity errors : sum local = 2.37176e+09, global = 2.67829e+07, cumulative = 9.08288e+08
ExecutionTime = 445.095 s  ClockTime = 446 s

Time = 972s

DILUPBiCG:  Solving for Ux, Initial residual = 0.0407766, Final residual = 4.46761e-06, No Iterations 3
DILUPBiCG:  Solving for Uy, Initial residual = 0.0301042, Final residual = 5.03954e-06, No Iterations 3
DILUPBiCG:  Solving for Uz, Initial residual = 0.0473067, Final residual = 6.38529e-06, No Iterations 3
DICPCG:  Solving for p, Initial residual = 0.121437, Final residual = 9.54341e-07, No Iterations 95
time step continuity errors : sum local = 2.47956e+09, global = 3.96883e+07, cumulative = 9.47976e+08
ExecutionTime = 445.527 s  ClockTime = 447 s

Time = 973s

DILUPBiCG:  Solving for Ux, Initial residual = 0.0403697, Final residual = 8.84857e-06, No Iterations 3
DILUPBiCG:  Solving for Uy, Initial residual = 0.0299245, Final residual = 3.19927e-07, No Iterations 4
DILUPBiCG:  Solving for Uz, Initial residual = 0.0468965, Final residual = 6.09084e-06, No Iterations 3
DICPCG:  Solving for p, Initial residual = 0.121449, Final residual = 9.7336e-07, No Iterations 96
time step continuity errors : sum local = 2.62136e+09, global = 6.39512e+07, cumulative = 1.01193e+09
ExecutionTime = 445.968 s  ClockTime = 447 s

Time = 974s

DILUPBiCG:  Solving for Ux, Initial residual = 0.0401381, Final residual = 8.2239e-06, No Iterations 3
DILUPBiCG:  Solving for Uy, Initial residual = 0.0298651, Final residual = 4.95474e-07, No Iterations 4
DILUPBiCG:  Solving for Uz, Initial residual = 0.0466729, Final residual = 8.66136e-06, No Iterations 3
DICPCG:  Solving for p, Initial residual = 0.120584, Final residual = 9.83493e-07, No Iterations 95
time step continuity errors : sum local = 2.74347e+09, global = 5.95794e+07, cumulative = 1.07151e+09
ExecutionTime = 446.404 s  ClockTime = 447 s

Time = 975s

DILUPBiCG:  Solving for Ux, Initial residual = 0.0398953, Final residual = 5.37575e-07, No Iterations 4
DILUPBiCG:  Solving for Uy, Initial residual = 0.0296444, Final residual = 5.09898e-06, No Iterations 3
DILUPBiCG:  Solving for Uz, Initial residual = 0.0467, Final residual = 9.42491e-06, No Iterations 3
DICPCG:  Solving for p, Initial residual = 0.121079, Final residual = 9.76435e-07, No Iterations 97
time step continuity errors : sum local = 2.82016e+09, global = 5.04228e+07, cumulative = 1.12193e+09
ExecutionTime = 446.848 s  ClockTime = 448 s

Time = 976s

DILUPBiCG:  Solving for Ux, Initial residual = 0.0394846, Final residual = 4.61242e-06, No Iterations 3
DILUPBiCG:  Solving for Uy, Initial residual = 0.0294846, Final residual = 5.07692e-06, No Iterations 3
DILUPBiCG:  Solving for Uz, Initial residual = 0.0462801, Final residual = 7.66982e-06, No Iterations 3
DICPCG:  Solving for p, Initial residual = 0.120071, Final residual = 9.48447e-07, No Iterations 96
time step continuity errors : sum local = 2.8379e+09, global = 3.34957e+07, cumulative = 1.15543e+09
ExecutionTime = 447.286 s  ClockTime = 448 s

Time = 977s

DILUPBiCG:  Solving for Ux, Initial residual = 0.0391418, Final residual = 9.6175e-06, No Iterations 3
DILUPBiCG:  Solving for Uy, Initial residual = 0.0294442, Final residual = 4.45395e-07, No Iterations 4
DILUPBiCG:  Solving for Uz, Initial residual = 0.0455587, Final residual = 6.24442e-06, No Iterations 3
DICPCG:  Solving for p, Initial residual = 0.119661, Final residual = 9.32961e-07, No Iterations 98
time step continuity errors : sum local = 2.91201e+09, global = -5.63216e+06, cumulative = 1.14979e+09
ExecutionTime = 447.732 s  ClockTime = 449 s

Time = 978s

DILUPBiCG:  Solving for Ux, Initial residual = 0.0388857, Final residual = 7.77393e-06, No Iterations 3
DILUPBiCG:  Solving for Uy, Initial residual = 0.0295443, Final residual = 6.71294e-07, No Iterations 4
DILUPBiCG:  Solving for Uz, Initial residual = 0.0449847, Final residual = 7.77137e-06, No Iterations 3
DICPCG:  Solving for p, Initial residual = 0.119029, Final residual = 9.86814e-07, No Iterations 98
time step continuity errors : sum local = 3.21979e+09, global = 1.47819e+07, cumulative = 1.16458e+09
ExecutionTime = 448.186 s  ClockTime = 449 s

Time = 979s

DILUPBiCG:  Solving for Ux, Initial residual = 0.0386264, Final residual = 7.72341e-06, No Iterations 3
DILUPBiCG:  Solving for Uy, Initial residual = 0.0291184, Final residual = 4.52351e-06, No Iterations 3
DILUPBiCG:  Solving for Uz, Initial residual = 0.0447634, Final residual = 8.19292e-06, No Iterations 3
DICPCG:  Solving for p, Initial residual = 0.117927, Final residual = 9.18715e-07, No Iterations 100
time step continuity errors : sum local = 3.14211e+09, global = -5.72834e+07, cumulative = 1.10729e+09
ExecutionTime = 448.639 s  ClockTime = 450 s

Time = 980s

DILUPBiCG:  Solving for Ux, Initial residual = 0.0385028, Final residual = 4.17689e-06, No Iterations 3
DILUPBiCG:  Solving for Uy, Initial residual = 0.0286785, Final residual = 3.61372e-06, No Iterations 3
DILUPBiCG:  Solving for Uz, Initial residual = 0.044271, Final residual = 5.32102e-07, No Iterations 4
DICPCG:  Solving for p, Initial residual = 0.115684, Final residual = 9.81242e-07, No Iterations 99
time step continuity errors : sum local = 3.52431e+09, global = -1.0754e+07, cumulative = 1.09654e+09
ExecutionTime = 449.087 s  ClockTime = 450 s

Time = 981s

DILUPBiCG:  Solving for Ux, Initial residual = 0.0384454, Final residual = 4.38869e-06, No Iterations 3
DILUPBiCG:  Solving for Uy, Initial residual = 0.0284706, Final residual = 3.85227e-06, No Iterations 3
DILUPBiCG:  Solving for Uz, Initial residual = 0.0438318, Final residual = 6.51936e-06, No Iterations 3
DICPCG:  Solving for p, Initial residual = 0.113375, Final residual = 9.53088e-07, No Iterations 97
time step continuity errors : sum local = 3.59266e+09, global = 2.69527e+07, cumulative = 1.12349e+09
ExecutionTime = 449.529 s  ClockTime = 451 s

Time = 982s

DILUPBiCG:  Solving for Ux, Initial residual = 0.0388333, Final residual = 4.6178e-06, No Iterations 3
DILUPBiCG:  Solving for Uy, Initial residual = 0.0283651, Final residual = 3.61651e-06, No Iterations 3
DILUPBiCG:  Solving for Uz, Initial residual = 0.0437448, Final residual = 5.25671e-06, No Iterations 3
DICPCG:  Solving for p, Initial residual = 0.111734, Final residual = 9.52102e-07, No Iterations 96
time step continuity errors : sum local = 3.75435e+09, global = 1.22408e+08, cumulative = 1.2459e+09
ExecutionTime = 449.967 s  ClockTime = 451 s

Time = 983s

DILUPBiCG:  Solving for Ux, Initial residual = 0.0390165, Final residual = 4.51831e-06, No Iterations 3
DILUPBiCG:  Solving for Uy, Initial residual = 0.0282225, Final residual = 3.65818e-06, No Iterations 3
DILUPBiCG:  Solving for Uz, Initial residual = 0.0435863, Final residual = 5.13437e-06, No Iterations 3
DICPCG:  Solving for p, Initial residual = 0.112195, Final residual = 9.20225e-07, No Iterations 95
time step continuity errors : sum local = 3.78734e+09, global = 1.88382e+08, cumulative = 1.43428e+09
ExecutionTime = 450.396 s  ClockTime = 451 s

Time = 984s

DILUPBiCG:  Solving for Ux, Initial residual = 0.0388585, Final residual = 7.98022e-06, No Iterations 3
DILUPBiCG:  Solving for Uy, Initial residual = 0.0280084, Final residual = 5.70365e-06, No Iterations 3
DILUPBiCG:  Solving for Uz, Initial residual = 0.0432144, Final residual = 5.10174e-06, No Iterations 3
DICPCG:  Solving for p, Initial residual = 0.110114, Final residual = 9.92376e-07, No Iterations 93
time step continuity errors : sum local = 4.24477e+09, global = 2.43259e+08, cumulative = 1.67754e+09
ExecutionTime = 450.821 s  ClockTime = 452 s

Time = 985s

DILUPBiCG:  Solving for Ux, Initial residual = 0.0388163, Final residual = 8.33152e-06, No Iterations 3
DILUPBiCG:  Solving for Uy, Initial residual = 0.0277655, Final residual = 4.95785e-06, No Iterations 3
DILUPBiCG:  Solving for Uz, Initial residual = 0.0428068, Final residual = 4.72958e-06, No Iterations 3
DICPCG:  Solving for p, Initial residual = 0.109357, Final residual = 9.68791e-07, No Iterations 92
time step continuity errors : sum local = 4.30238e+09, global = 2.46742e+08, cumulative = 1.92428e+09
ExecutionTime = 451.251 s  ClockTime = 452 s

Time = 986s

DILUPBiCG:  Solving for Ux, Initial residual = 0.0385614, Final residual = 6.82468e-06, No Iterations 3
DILUPBiCG:  Solving for Uy, Initial residual = 0.0273459, Final residual = 5.40011e-06, No Iterations 3
DILUPBiCG:  Solving for Uz, Initial residual = 0.0424751, Final residual = 9.81783e-06, No Iterations 3
DICPCG:  Solving for p, Initial residual = 0.109723, Final residual = 9.83904e-07, No Iterations 91
time step continuity errors : sum local = 4.54114e+09, global = 2.54042e+08, cumulative = 2.17832e+09
ExecutionTime = 451.682 s  ClockTime = 453 s

Time = 987s

DILUPBiCG:  Solving for Ux, Initial residual = 0.0383018, Final residual = 5.05015e-06, No Iterations 3
DILUPBiCG:  Solving for Uy, Initial residual = 0.0269642, Final residual = 7.39704e-06, No Iterations 3
DILUPBiCG:  Solving for Uz, Initial residual = 0.0421066, Final residual = 3.6579e-07, No Iterations 4
DICPCG:  Solving for p, Initial residual = 0.109695, Final residual = 9.77993e-07, No Iterations 91
time step continuity errors : sum local = 4.69974e+09, global = 2.45984e+08, cumulative = 2.42431e+09
ExecutionTime = 452.112 s  ClockTime = 453 s

Time = 988s

DILUPBiCG:  Solving for Ux, Initial residual = 0.0381425, Final residual = 4.36781e-06, No Iterations 3
DILUPBiCG:  Solving for Uy, Initial residual = 0.0266794, Final residual = 9.1501e-06, No Iterations 3
DILUPBiCG:  Solving for Uz, Initial residual = 0.0417322, Final residual = 5.7319e-06, No Iterations 3
DICPCG:  Solving for p, Initial residual = 0.10892, Final residual = 9.20428e-07, No Iterations 91
time step continuity errors : sum local = 4.60622e+09, global = 2.11403e+08, cumulative = 2.63571e+09
ExecutionTime = 452.535 s  ClockTime = 454 s

Time = 989s

DILUPBiCG:  Solving for Ux, Initial residual = 0.0379091, Final residual = 4.20655e-06, No Iterations 3
DILUPBiCG:  Solving for Uy, Initial residual = 0.0265502, Final residual = 4.30094e-06, No Iterations 3
DILUPBiCG:  Solving for Uz, Initial residual = 0.0412941, Final residual = 4.88039e-06, No Iterations 3
DICPCG:  Solving for p, Initial residual = 0.108387, Final residual = 9.52908e-07, No Iterations 91
time step continuity errors : sum local = 4.94455e+09, global = 1.84879e+08, cumulative = 2.82059e+09
ExecutionTime = 452.967 s  ClockTime = 454 s

Time = 990s

DILUPBiCG:  Solving for Ux, Initial residual = 0.0377195, Final residual = 4.83522e-06, No Iterations 3
DILUPBiCG:  Solving for Uy, Initial residual = 0.0264135, Final residual = 3.68702e-06, No Iterations 3
DILUPBiCG:  Solving for Uz, Initial residual = 0.0408747, Final residual = 4.87544e-06, No Iterations 3
DICPCG:  Solving for p, Initial residual = 0.10853, Final residual = 8.66903e-07, No Iterations 91
time step continuity errors : sum local = 4.6584e+09, global = 1.32536e+08, cumulative = 2.95312e+09
ExecutionTime = 453.396 s  ClockTime = 454 s

Time = 991s

DILUPBiCG:  Solving for Ux, Initial residual = 0.037574, Final residual = 5.50977e-06, No Iterations 3
DILUPBiCG:  Solving for Uy, Initial residual = 0.0262551, Final residual = 3.52781e-06, No Iterations 3
DILUPBiCG:  Solving for Uz, Initial residual = 0.0405072, Final residual = 4.56321e-06, No Iterations 3
DICPCG:  Solving for p, Initial residual = 0.107567, Final residual = 8.91675e-07, No Iterations 91
time step continuity errors : sum local = 4.96273e+09, global = 1.35826e+08, cumulative = 3.08895e+09
ExecutionTime = 453.817 s  ClockTime = 455 s

Time = 992s

DILUPBiCG:  Solving for Ux, Initial residual = 0.0374748, Final residual = 5.31701e-06, No Iterations 3
DILUPBiCG:  Solving for Uy, Initial residual = 0.0260667, Final residual = 5.37295e-06, No Iterations 3
DILUPBiCG:  Solving for Uz, Initial residual = 0.040161, Final residual = 4.55347e-06, No Iterations 3
DICPCG:  Solving for p, Initial residual = 0.106955, Final residual = 8.68048e-07, No Iterations 92
time step continuity errors : sum local = 5.00297e+09, global = 1.39214e+08, cumulative = 3.22816e+09
ExecutionTime = 454.245 s  ClockTime = 455 s

Time = 993s

DILUPBiCG:  Solving for Ux, Initial residual = 0.0371722, Final residual = 5.16458e-06, No Iterations 3
DILUPBiCG:  Solving for Uy, Initial residual = 0.0259917, Final residual = 9.1141e-06, No Iterations 3
DILUPBiCG:  Solving for Uz, Initial residual = 0.0398342, Final residual = 4.53919e-06, No Iterations 3
DICPCG:  Solving for p, Initial residual = 0.107101, Final residual = 8.98306e-07, No Iterations 92
time step continuity errors : sum local = 5.35951e+09, global = 1.81337e+08, cumulative = 3.4095e+09
ExecutionTime = 454.672 s  ClockTime = 456 s

Time = 994s

DILUPBiCG:  Solving for Ux, Initial residual = 0.0370001, Final residual = 5.17384e-06, No Iterations 3
DILUPBiCG:  Solving for Uy, Initial residual = 0.0261022, Final residual = 8.96945e-06, No Iterations 3
DILUPBiCG:  Solving for Uz, Initial residual = 0.0398833, Final residual = 4.55322e-06, No Iterations 3
DICPCG:  Solving for p, Initial residual = 0.107722, Final residual = 8.6137e-07, No Iterations 93
time step continuity errors : sum local = 5.34817e+09, global = 2.12932e+08, cumulative = 3.62243e+09
ExecutionTime = 455.106 s  ClockTime = 456 s

Time = 995s

DILUPBiCG:  Solving for Ux, Initial residual = 0.0369743, Final residual = 5.23245e-06, No Iterations 3
DILUPBiCG:  Solving for Uy, Initial residual = 0.0261531, Final residual = 5.64044e-06, No Iterations 3
DILUPBiCG:  Solving for Uz, Initial residual = 0.0400906, Final residual = 5.95399e-06, No Iterations 3
DICPCG:  Solving for p, Initial residual = 0.106939, Final residual = 9.11187e-07, No Iterations 94
time step continuity errors : sum local = 5.87837e+09, global = 2.26626e+08, cumulative = 3.84906e+09
ExecutionTime = 455.56 s  ClockTime = 457 s

Time = 996s

DILUPBiCG:  Solving for Ux, Initial residual = 0.0368678, Final residual = 5.36401e-06, No Iterations 3
DILUPBiCG:  Solving for Uy, Initial residual = 0.0261182, Final residual = 4.94829e-06, No Iterations 3
DILUPBiCG:  Solving for Uz, Initial residual = 0.0402359, Final residual = 5.72252e-07, No Iterations 4
DICPCG:  Solving for p, Initial residual = 0.105905, Final residual = 9.39224e-07, No Iterations 92
time step continuity errors : sum local = 6.28936e+09, global = 2.15858e+08, cumulative = 4.06492e+09
ExecutionTime = 456.003 s  ClockTime = 457 s

Time = 997s

DILUPBiCG:  Solving for Ux, Initial residual = 0.0369522, Final residual = 5.60655e-06, No Iterations 3
DILUPBiCG:  Solving for Uy, Initial residual = 0.0261094, Final residual = 4.18624e-06, No Iterations 3
DILUPBiCG:  Solving for Uz, Initial residual = 0.040233, Final residual = 4.5498e-07, No Iterations 4
DICPCG:  Solving for p, Initial residual = 0.105198, Final residual = 9.30223e-07, No Iterations 93
time step continuity errors : sum local = 6.48234e+09, global = 2.061e+08, cumulative = 4.27102e+09
ExecutionTime = 456.437 s  ClockTime = 458 s

Time = 998s

DILUPBiCG:  Solving for Ux, Initial residual = 0.0370059, Final residual = 4.71904e-06, No Iterations 3
DILUPBiCG:  Solving for Uy, Initial residual = 0.0260976, Final residual = 3.71109e-06, No Iterations 3
DILUPBiCG:  Solving for Uz, Initial residual = 0.0400947, Final residual = 3.90234e-07, No Iterations 4
DICPCG:  Solving for p, Initial residual = 0.10425, Final residual = 9.55129e-07, No Iterations 92
time step continuity errors : sum local = 6.91194e+09, global = 2.08223e+08, cumulative = 4.47924e+09
ExecutionTime = 456.874 s  ClockTime = 458 s

Time = 999s

DILUPBiCG:  Solving for Ux, Initial residual = 0.0367716, Final residual = 5.01198e-06, No Iterations 3
DILUPBiCG:  Solving for Uy, Initial residual = 0.0259973, Final residual = 3.48752e-06, No Iterations 3
DILUPBiCG:  Solving for Uz, Initial residual = 0.0398385, Final residual = 4.60177e-06, No Iterations 3
DICPCG:  Solving for p, Initial residual = 0.103374, Final residual = 9.81175e-07, No Iterations 92
time step continuity errors : sum local = 7.36519e+09, global = 2.23062e+08, cumulative = 4.7023e+09
ExecutionTime = 457.297 s  ClockTime = 458 s

Time = 1000s

DILUPBiCG:  Solving for Ux, Initial residual = 0.0366746, Final residual = 5.75282e-06, No Iterations 3
DILUPBiCG:  Solving for Uy, Initial residual = 0.0259009, Final residual = 3.76512e-06, No Iterations 3
DILUPBiCG:  Solving for Uz, Initial residual = 0.0395897, Final residual = 4.9472e-06, No Iterations 3
DICPCG:  Solving for p, Initial residual = 0.101999, Final residual = 9.93417e-07, No Iterations 92
time step continuity errors : sum local = 7.6914e+09, global = 2.573e+08, cumulative = 4.9596e+09
ExecutionTime = 458.06 s  ClockTime = 459 s

End

